version 2
run Dynamic-0-20220519-11:39:20-916
attr configname Dynamic
attr datetime 20220519-11:39:20
attr experiment "\"Dynamic\""
attr inifile omnetpp.ini
attr iterationvars "$rateControl=\"\""
attr iterationvarsf rateControl=-
attr measurement "\"DYMO-10K-Mobility-1000s\""
attr network manet
attr processid 916
attr repetition 0
attr replication "\"#0\""
attr resultdir results
attr runnumber 0
attr seedset 0
itervar rateControl "\"\""
param **.host[0].mobility.typename "\"TurtleMobility\""
param **.host[1].mobility.typename "\"AnsimMobility\""
param **.host[0].mobility.turtleScript "xmldoc(\"move0.xml\")"
param **.host[1].mobility.ansimTrace "xmldoc(\"ansimtrace.xml\")"
param **.host[1].mobility.nodeId 1
param **.host[2..6].mobility.typename "\"StationaryMobility\""
param **.host[2..6].mobility.initFromDisplayString false
param **.host[2].mobility.initialX 900m
param **.host[2].mobility.initialY 500m
param **.host[3].mobility.initialX 1400m
param **.host[3].mobility.initialY 490m
param **.host[4].mobility.initialX 1700m
param **.host[4].mobility.initialY 350m
param **.host[5].mobility.initialX 1320m
param **.host[5].mobility.initialY 750m
param **.host[6].mobility.initialX 930m
param **.host[6].mobility.initialY 650m
param *.host[*].hasStatus true
param **.host[0].numApps 1
param **.host[1].numApps 1
param **.host[0].app[0].typename "\"UdpBasicApp\""
param **.host[0].app[0].destPort 5001
param **.host[0].app[0].messageLength 10000B
param **.host[0].app[0].destAddresses "moduleListByPath(\"**.host[1]\")"
param **.host[1].app[0].localPort 5001
param **.host[1].app[0].typename "\"UdpSink\""
param **.app[*].sendInterval 0.5s+uniform(-0.02s,0.02s)
param *.host*.wlan[0].mac.headerLength 23B
param **.host[*].wlan[*].radio.receiver.errorModelType "\"StochasticErrorModel\""
param **.host[*].wlan[*].radio.receiver.errorModel.bitErrorRate 0.00000001
param *.host[*].wlan[*].opMode "\"g(erp)\""
param *.host[*].wlan[*].mac.*.rateControl.typename "\"\""
param *.host[*].networkLayer.arp.typename "\"GlobalArp\""
param *.host[*].wlan[*].mac.*.rateControl.initialRate 54Mbps
param *.host[*].wlan[*].mac.*.rateSelection.dataFrameBitrate "(\"\" == \"\" ? 54Mbps : -1bps)"
param **.wlan[*].radio.transmitter.power 15.0mW
param *.host[*].wlan[*].radio.receiver.ignoreInterference false
param **.radio.bandwidth 20MHz
param **.radio.centerFrequency 2.45GHz
param **.radio.channelNumber 8
param *.host[*].energyStorage.typename "\"SimpleEpEnergyStorage\""
param *.host[*].wlan[*].radio.energyConsumer.typename "\"StateBasedEpEnergyConsumer\""
param *.host[*].energyManagement.typename "\"SimpleEpEnergyManagement\""
param *.host[*].energyStorage.nominalCapacity 5J
param *.host[*].energyManagement.nodeShutdownCapacity "0.1 * energyStorage.nominalCapacity"
param *.host[*].energyManagement.nodeStartCapacity "0.5 * energyStorage.nominalCapacity"
param *.host[*].energyStorage.initialCapacity "uniform(0.6 * energyStorage.nominalCapacity, energyStorage.nominalCapacity)"
param *.host[*].wlan[*].radio.energyConsumer.sleepPowerConsumption 0.1mW
param *.host[*].wlan[*].radio.energyConsumer.receiverIdlePowerConsumption 4mW
param *.host[*].wlan[*].radio.energyConsumer.receiverBusyPowerConsumption 10mW
param *.host[*].wlan[*].radio.energyConsumer.receiverReceivingPowerConsumption 20mW
param *.host[*].wlan[*].radio.energyConsumer.transmitterIdlePowerConsumption 4mW
param *.host[*].wlan[*].radio.energyConsumer.transmitterTransmittingPowerConsumption 200mW
param **.backgroundNoise.power -110dBm
param *.physicalEnvironment.config "xmldoc(\"walls.xml\")"
param *.physicalEnvironment.ground.typename "\"FlatGround\""
param *.radioMedium.pathLoss.typename "\"LogNormalShadowing\""
param *.radioMedium.pathLoss.sigma 9
param *.radioMedium.obstacleLoss.typename "\"DielectricObstacleLoss\""
param *.visualizer.sceneVisualizer.descriptionFigure default
param *.visualizer.networkRouteVisualizer.displayRoutes true
param *.visualizer.mediumVisualizer.displaySignals false
param *.visualizer.physicalLinkVisualizer.packetFilter "\"UDP*\""
param *.visualizer.sceneVisualizer.descriptionFigure "\"title\""
param *.visualizer.networkRouteVisualizer.packetFilter "\"*UdpBasicAppData*\""
param *.visualizer.mediumVisualizer.signalPropagationUpdateInterval 100ns
param *.host[0..1].wlan[*].radio.displayCommunicationRange true
param *.visualizer.mobilityVisualizer.displayMovementTrail true
param *.configurator.addStaticRoutes false
param *.numHosts 7
param **.constraintAreaMinX 440m
param **.constraintAreaMaxX 1900m
param **.constraintAreaMinY 0m
param **.constraintAreaMaxY 2000m
param **.constraintAreaMinZ 0m
param **.constraintAreaMaxZ 1000m

scalar manet.host[0].energyStorage residualEnergyCapacity:last 3.7669600282457
attr interpolationmode linear
attr source residualEnergyCapacityChanged
attr title "Residual energy capacity, last"
scalar manet.host[0].lo[0].lo rcvdPkFromHl:count 0
attr interpolationmode none
attr source packetReceivedFromUpper
attr title "packets received from higher layer, count"
scalar manet.host[0].lo[0].lo rcvdPkFromHl:sum(packetBytes) 0
attr interpolationmode none
attr source packetReceivedFromUpper
attr title "packets received from higher layer, sum(packetBytes)"
scalar manet.host[0].lo[0].lo passedUpPk:count 0
attr interpolationmode none
attr source packetSentToUpper
attr title "packets passed to higher layer, count"
scalar manet.host[0].lo[0].lo passedUpPk:sum(packetBytes) 0
attr interpolationmode none
attr source packetSentToUpper
attr title "packets passed to higher layer, sum(packetBytes)"
scalar manet.host[0].wlan[0].mac.dcf.channelAccess.pendingQueue packetPopped:count 738
attr interpolationmode none
attr title "packet popped, count"
scalar manet.host[0].wlan[0].mac.dcf.channelAccess.pendingQueue packetPopped:sum(packetBytes) 792358
attr interpolationmode none
attr title "packet popped, sum(packetBytes)"
statistic manet.host[0].wlan[0].mac.dcf.channelAccess.pendingQueue queueingTime:histogram
field count 738
field mean 0.2921063851492
field stddev 0.63893866129815
field min 0
field max 2.855249889492
field sum 215.57451224011
field sqrsum 363.84549720915
attr interpolationmode none
attr source queueingTime(packetPopped)
attr title "queueing times, histogram"
attr unit s
bin	-inf	0
bin	0	460
bin	0.05	53
bin	0.1	44
bin	0.15	18
bin	0.2	17
bin	0.25	3
bin	0.3	5
bin	0.35	5
bin	0.4	4
bin	0.45	3
bin	0.5	6
bin	0.55	3
bin	0.6	3
bin	0.65	4
bin	0.7	4
bin	0.75	4
bin	0.8	21
bin	0.85	4
bin	0.9	1
bin	0.95	1
bin	1	0
bin	1.05	3
bin	1.1	2
bin	1.15	2
bin	1.2	3
bin	1.25	2
bin	1.3	1
bin	1.35	4
bin	1.4	1
bin	1.45	1
bin	1.5	2
bin	1.55	3
bin	1.6	3
bin	1.65	1
bin	1.7	2
bin	1.75	2
bin	1.8	1
bin	1.85	2
bin	1.9	1
bin	1.95	2
bin	2	1
bin	2.05	1
bin	2.1	1
bin	2.15	1
bin	2.2	1
bin	2.25	3
bin	2.3	0
bin	2.35	3
bin	2.4	1
bin	2.45	2
bin	2.5	1
bin	2.55	4
bin	2.6	3
bin	2.65	2
bin	2.7	1
bin	2.75	8
bin	2.8	3
bin	2.85	1
bin	2.9	0
bin	2.95	0
bin	3	0
bin	3.05	0
bin	3.1	0
bin	3.15	0
bin	3.2	0
bin	3.25	0
bin	3.3	0
bin	3.35	0
bin	3.4	0
bin	3.45	0
bin	3.5	0
bin	3.55	0
bin	3.6	0
scalar manet.host[0].wlan[0].mac.dcf.channelAccess.pendingQueue queueLength:max 101
attr interpolationmode sample-hold
attr source "count(packetPushed) - count(packetPopped) - count(packetRemoved) - count(packetDropped)"
attr title "queue length, max"
scalar manet.host[0].wlan[0].mac.dcf.channelAccess.pendingQueue queueLength:timeavg 4.0556345104684
attr interpolationmode sample-hold
attr source "count(packetPushed) - count(packetPopped) - count(packetRemoved) - count(packetDropped)"
attr title "queue length, timeavg"
scalar manet.host[0].wlan[0].mac.dcf.channelAccess.pendingQueue packetPushed:count 789
attr interpolationmode none
attr title "packet pushed, count"
scalar manet.host[0].wlan[0].mac.dcf.channelAccess.pendingQueue packetPushed:sum(packetBytes) 896182
attr interpolationmode none
attr title "packet pushed, sum(packetBytes)"
scalar manet.host[0].wlan[0].mac.dcf.channelAccess.pendingQueue packetDropQueueOverflow:count 40
attr interpolationmode none
attr source packetDropReasonIsQueueOverflow(packetDropped)
attr title "packet drops: queue overflow, count"
scalar manet.host[0].wlan[0].mac.dcf.channelAccess.pendingQueue packetDropQueueOverflow:sum(packetBytes) 82304
attr interpolationmode none
attr source packetDropReasonIsQueueOverflow(packetDropped)
attr title "packet drops: queue overflow, sum(packetBytes)"
scalar manet.host[0].wlan[0].mac.dcf.channelAccess.pendingQueue packetRemoved:count 0
attr interpolationmode none
attr title "packets removed, count"
scalar manet.host[0].wlan[0].mac.dcf.channelAccess.pendingQueue packetRemoved:sum(packetBytes) 0
attr interpolationmode none
attr title "packets removed, sum(packetBytes)"
statistic manet.host[0].wlan[0].mac.dcf.channelAccess.inProgressFrames queueingTime:histogram
field count 1028
field mean 0.012808985753692
field stddev 0.020042646990916
field min 3.8e-005
field max 0.113539919076
field sum 13.167637354795
field sqrsum 0.58121788554667
attr interpolationmode none
attr source queueingTime(packetDequeued)
attr title "queueing times, histogram"
bin	-inf	0
bin	0	478
bin	0.002	82
bin	0.004	49
bin	0.006	27
bin	0.008	34
bin	0.01	21
bin	0.012	28
bin	0.014	25
bin	0.016	30
bin	0.018	26
bin	0.02	15
bin	0.022	20
bin	0.024	22
bin	0.026	17
bin	0.028	17
bin	0.03	6
bin	0.032	4
bin	0.034	8
bin	0.036	6
bin	0.038	3
bin	0.04	2
bin	0.042	7
bin	0.044	12
bin	0.046	11
bin	0.048	3
bin	0.05	4
bin	0.052	6
bin	0.054	4
bin	0.056	6
bin	0.058	4
bin	0.06	4
bin	0.062	7
bin	0.064	1
bin	0.066	3
bin	0.068	6
bin	0.07	1
bin	0.072	5
bin	0.074	4
bin	0.076	3
bin	0.078	2
bin	0.08	1
bin	0.082	3
bin	0.084	0
bin	0.086	0
bin	0.088	1
bin	0.09	0
bin	0.092	3
bin	0.094	1
bin	0.096	1
bin	0.098	0
bin	0.1	1
bin	0.102	0
bin	0.104	1
bin	0.106	1
bin	0.108	1
bin	0.11	0
bin	0.112	1
bin	0.114	0
bin	0.116	0
bin	0.118	0
bin	0.12	0
bin	0.122	0
bin	0.124	0
bin	0.126	0
bin	0.128	0
bin	0.13	0
bin	0.132	0
bin	0.134	0
bin	0.136	0
scalar manet.host[0].wlan[0].mac.dcf.channelAccess.inProgressFrames queueLength:max 3
attr interpolationmode sample-hold
attr source "count(packetEnqueued) - count(packetDequeued)"
attr title "queue length, max"
scalar manet.host[0].wlan[0].mac.dcf.channelAccess.inProgressFrames queueLength:timeavg 0.24770548262207
attr interpolationmode sample-hold
attr source "count(packetEnqueued) - count(packetDequeued)"
attr title "queue length, timeavg"
scalar manet.host[0].wlan[0].mac.dcf.channelAccess.contention stateChanged:count 42918
attr interpolationmode none
attr title "contention state changed, count"
scalar manet.host[0].wlan[0].mac.dcf.channelAccess.contention channelAccessGranted:count 2874
attr title "channel access granted, count"
scalar manet.host[0].wlan[0].mac.dcf.channelAccess channelOwnershipChanged:count 5748
attr interpolationmode sample-hold
attr title "channel ownership, count"
scalar manet.host[0].wlan[0].mac.dcf.originatorMacDataService packetAggregated:count 0
attr title "packets aggregated, count"
scalar manet.host[0].wlan[0].mac.dcf.originatorMacDataService packetFragmented:count 292
attr title "packets fragmented, count"
scalar manet.host[0].wlan[0].mac.dcf.recipientMacDataService packetDropDuplicateDetected:count 60
attr interpolationmode none
attr source packetDropReasonIsDuplicateDetected(packetDropped)
attr title "packet drops: duplicate detected, count"
scalar manet.host[0].wlan[0].mac.dcf.recipientMacDataService packetDropDuplicateDetected:sum(packetBytes) 5928
attr interpolationmode none
attr source packetDropReasonIsDuplicateDetected(packetDropped)
attr title "packet drops: duplicate detected, sum(packetBytes)"
scalar manet.host[0].wlan[0].mac.dcf.recipientMacDataService packetDeaggregated:count 0
attr title "packets deaggregated, count"
scalar manet.host[0].wlan[0].mac.dcf.recipientMacDataService packetDefragmented:count 792
attr title "packets defragmented, count"
scalar manet.host[0].wlan[0].mac.dcf.recoveryProcedure retryLimitReached:count 203
attr title "retry limit reached, count"
scalar manet.host[0].wlan[0].mac.dcf packetReceivedFromPeer:count 1341
attr interpolationmode none
attr title "packets received, count"
scalar manet.host[0].wlan[0].mac.dcf packetReceivedFromPeer:sum(packetBytes) 103082
attr interpolationmode none
attr title "packets received, sum(packetBytes)"
scalar manet.host[0].wlan[0].mac.dcf packetReceivedFromPeerUnicast:count 689
attr interpolationmode none
attr source ieee80211Unicast(packetReceivedFromPeer)
attr title "packets received: unicast, count"
scalar manet.host[0].wlan[0].mac.dcf packetReceivedFromPeerUnicast:sum(packetBytes) 26438
attr interpolationmode none
attr source ieee80211Unicast(packetReceivedFromPeer)
attr title "packets received: unicast, sum(packetBytes)"
scalar manet.host[0].wlan[0].mac.dcf packetReceivedFromPeerMulticast:count 652
attr interpolationmode none
attr source ieee80211Multicast(packetReceivedFromPeer)
attr title "packets received: multicast, count"
scalar manet.host[0].wlan[0].mac.dcf packetReceivedFromPeerMulticast:sum(packetBytes) 76644
attr interpolationmode none
attr source ieee80211Multicast(packetReceivedFromPeer)
attr title "packets received: multicast, sum(packetBytes)"
scalar manet.host[0].wlan[0].mac.dcf packetReceivedFromPeerBroadcast:count 8
attr interpolationmode none
attr source ieee80211Broadcast(packetReceivedFromPeer)
attr title "packets received: broadcast, count"
scalar manet.host[0].wlan[0].mac.dcf packetReceivedFromPeerBroadcast:sum(packetBytes) 512
attr interpolationmode none
attr source ieee80211Broadcast(packetReceivedFromPeer)
attr title "packets received: broadcast, sum(packetBytes)"
scalar manet.host[0].wlan[0].mac.dcf packetReceivedFromPeerWithRetry:count 135
attr interpolationmode none
attr source ieee80211Retry(packetReceivedFromPeer)
attr title "packets received: with retry, count"
scalar manet.host[0].wlan[0].mac.dcf packetReceivedFromPeerWithRetry:sum(packetBytes) 13182
attr interpolationmode none
attr source ieee80211Retry(packetReceivedFromPeer)
attr title "packets received: with retry, sum(packetBytes)"
scalar manet.host[0].wlan[0].mac.dcf packetReceivedFromPeerWithoutRetry:count 1206
attr interpolationmode none
attr source ieee80211NotRetry(packetReceivedFromPeer)
attr title "packets received: without retry, count"
scalar manet.host[0].wlan[0].mac.dcf packetReceivedFromPeerWithoutRetry:sum(packetBytes) 89900
attr interpolationmode none
attr source ieee80211NotRetry(packetReceivedFromPeer)
attr title "packets received: without retry, sum(packetBytes)"
scalar manet.host[0].wlan[0].mac.dcf packetSentToPeer:count 3281
attr interpolationmode none
attr title "packets sent, count"
scalar manet.host[0].wlan[0].mac.dcf packetSentToPeer:sum(packetBytes) 3121182
attr interpolationmode none
attr title "packets sent, sum(packetBytes)"
scalar manet.host[0].wlan[0].mac.dcf packetSentToPeerUnicast:count 2945
attr interpolationmode none
attr source ieee80211Unicast(packetSentToPeer)
attr title "packets sent: unicast, count"
scalar manet.host[0].wlan[0].mac.dcf packetSentToPeerUnicast:sum(packetBytes) 3082426
attr interpolationmode none
attr source ieee80211Unicast(packetSentToPeer)
attr title "packets sent: unicast, sum(packetBytes)"
scalar manet.host[0].wlan[0].mac.dcf packetSentToPeerMulticast:count 336
attr interpolationmode none
attr source ieee80211Multicast(packetSentToPeer)
attr title "packets sent: multicast, count"
scalar manet.host[0].wlan[0].mac.dcf packetSentToPeerMulticast:sum(packetBytes) 38756
attr interpolationmode none
attr source ieee80211Multicast(packetSentToPeer)
attr title "packets sent: multicast, sum(packetBytes)"
scalar manet.host[0].wlan[0].mac.dcf packetSentToPeerBroadcast:count 7
attr interpolationmode none
attr source ieee80211Broadcast(packetSentToPeer)
attr title "packets sent: broadcast , count"
scalar manet.host[0].wlan[0].mac.dcf packetSentToPeerBroadcast:sum(packetBytes) 448
attr interpolationmode none
attr source ieee80211Broadcast(packetSentToPeer)
attr title "packets sent: broadcast , sum(packetBytes)"
scalar manet.host[0].wlan[0].mac.dcf packetSentToPeerWithRetry:count 2052
attr interpolationmode none
attr source ieee80211Retry(packetSentToPeer)
attr title "packets sent: with retry, count"
scalar manet.host[0].wlan[0].mac.dcf packetSentToPeerWithRetry:sum(packetBytes) 2318712
attr interpolationmode none
attr source ieee80211Retry(packetSentToPeer)
attr title "packets sent: with retry, sum(packetBytes)"
scalar manet.host[0].wlan[0].mac.dcf packetSentToPeerWithoutRetry:count 1229
attr interpolationmode none
attr source ieee80211NotRetry(packetSentToPeer)
attr title "packets sent: without retry, count"
scalar manet.host[0].wlan[0].mac.dcf packetSentToPeerWithoutRetry:sum(packetBytes) 802470
attr interpolationmode none
attr source ieee80211NotRetry(packetSentToPeer)
attr title "packets sent: without retry, sum(packetBytes)"
scalar manet.host[0].wlan[0].mac.dcf packetDrop:count 2721
attr interpolationmode none
attr source packetDropped
attr title "packet drops, count"
scalar manet.host[0].wlan[0].mac.dcf packetDrop:sum(packetBytes) 2029592
attr interpolationmode none
attr source packetDropped
attr title "packet drops, sum(packetBytes)"
scalar manet.host[0].wlan[0].mac.dcf packetDropNotAddressedToUs:count 2418
attr interpolationmode none
attr source packetDropReasonIsNotAddressedToUs(packetDropped)
attr title "packet drops: not addressed to us, count"
scalar manet.host[0].wlan[0].mac.dcf packetDropNotAddressedToUs:sum(packetBytes) 1713368
attr interpolationmode none
attr source packetDropReasonIsNotAddressedToUs(packetDropped)
attr title "packet drops: not addressed to us, sum(packetBytes)"
scalar manet.host[0].wlan[0].mac.dcf packetDropQueueOverflow:count 40
attr interpolationmode none
attr source packetDropReasonIsQueueOverflow(packetDropped)
attr title "packet drops: queue overflow, count"
scalar manet.host[0].wlan[0].mac.dcf packetDropQueueOverflow:sum(packetBytes) 82304
attr interpolationmode none
attr source packetDropReasonIsQueueOverflow(packetDropped)
attr title "packet drops: queue overflow, sum(packetBytes)"
scalar manet.host[0].wlan[0].mac.dcf packetDropRetryLimitReached:count 203
attr interpolationmode none
attr source packetDropReasonIsRetryLimitReached(packetDropped)
attr title "packet drops: retry limit reached, count"
scalar manet.host[0].wlan[0].mac.dcf packetDropRetryLimitReached:sum(packetBytes) 227992
attr interpolationmode none
attr source packetDropReasonIsRetryLimitReached(packetDropped)
attr title "packet drops: retry limit reached, sum(packetBytes)"
scalar manet.host[0].wlan[0].mac.dcf linkBroken:count 203
attr interpolationmode none
attr title "link breaks, count"
scalar manet.host[0].wlan[0].mac.dcf frameSequenceFinished:count 2874
attr title "finished frame sequences, count"
statistic manet.host[0].wlan[0].mac.dcf frameSequenceDuration:histogram
field count 2874
field mean 0.00023603172928462
field stddev 0.00011074033643548
field min 3.8e-005
field max 0.000538000081
field sum 0.67835518996401
field sqrsum 0.00019534616028948
attr source frameSequenceDuration(frameSequenceFinished)
attr title "frame sequence durations, histogram"
bin	-inf	0
bin	0	0
bin	1e-005	0
bin	2e-005	0
bin	3e-005	7
bin	4e-005	329
bin	5e-005	0
bin	6e-005	0
bin	7e-005	0
bin	8e-005	102
bin	9e-005	0
bin	0.0001	0
bin	0.00011	0
bin	0.00012	2
bin	0.00013	0
bin	0.00014	0
bin	0.00015	0
bin	0.00016	0
bin	0.00017	0
bin	0.00018	0
bin	0.00019	0
bin	0.0002	879
bin	0.00021	337
bin	0.00022	9
bin	0.00023	0
bin	0.00024	0
bin	0.00025	0
bin	0.00026	0
bin	0.00027	0
bin	0.00028	0
bin	0.00029	988
bin	0.0003	0
bin	0.00031	0
bin	0.00032	4
bin	0.00033	1
bin	0.00034	0
bin	0.00035	0
bin	0.00036	1
bin	0.00037	0
bin	0.00038	0
bin	0.00039	0
bin	0.0004	0
bin	0.00041	1
bin	0.00042	2
bin	0.00043	2
bin	0.00044	0
bin	0.00045	0
bin	0.00046	0
bin	0.00047	0
bin	0.00048	0
bin	0.00049	0
bin	0.0005	82
bin	0.00051	121
bin	0.00052	6
bin	0.00053	1
bin	0.00054	0
bin	0.00055	0
bin	0.00056	0
bin	0.00057	0
bin	0.00058	0
bin	0.00059	0
bin	0.0006	0
bin	0.00061	0
bin	0.00062	0
bin	0.00063	0
bin	0.00064	0
statistic manet.host[0].wlan[0].mac.dcf frameSequenceNumPackets:histogram
field count 2874
field mean 2.027139874739
field stddev 0.63593598773608
field min 1
field max 4
field sum 5826
field sqrsum 12972
attr source frameSequenceNumPackets(frameSequenceFinished)
attr title "frame sequences: number of packets, histogram"
bin	-inf	0
bin	0	0
bin	1	336
bin	2	2331
bin	3	0
bin	4	207
bin	5	0
scalar manet.host[0].wlan[0].mac packetReceivedFromLower:count 3955
attr interpolationmode none
attr title "packets received from lower layer, count"
scalar manet.host[0].wlan[0].mac packetReceivedFromLower:sum(packetBytes) 1952606
attr interpolationmode none
attr title "packets received from lower layer, sum(packetBytes)"
scalar manet.host[0].wlan[0].mac packetSentToLower:count 3281
attr interpolationmode none
attr title "packets sent to lower layer, count"
scalar manet.host[0].wlan[0].mac packetSentToLower:sum(packetBytes) 3121182
attr interpolationmode none
attr title "packets sent to lower layer, sum(packetBytes)"
scalar manet.host[0].wlan[0].mac packetReceivedFromUpper:count 789
attr interpolationmode none
attr title "packets received from upper layer, count"
scalar manet.host[0].wlan[0].mac packetReceivedFromUpper:sum(packetBytes) 874090
attr interpolationmode none
attr title "packets received from upper layer, sum(packetBytes)"
scalar manet.host[0].wlan[0].mac packetSentToUpper:count 792
attr interpolationmode none
attr title "packets sent to upper layer, count"
scalar manet.host[0].wlan[0].mac packetSentToUpper:sum(packetBytes) 68132
attr interpolationmode none
attr title "packets sent to upper layer, sum(packetBytes)"
scalar manet.host[0].wlan[0].mac packetDrop:count 2901
attr interpolationmode none
attr source packetDropped
attr title "packet drops, count"
scalar manet.host[0].wlan[0].mac packetDrop:sum(packetBytes) 2150684
attr interpolationmode none
attr source packetDropped
attr title "packet drops, sum(packetBytes)"
scalar manet.host[0].wlan[0].mac packetDropIncorrectlyReceived:count 180
attr interpolationmode none
attr source packetDropReasonIsIncorrectlyReceived(packetDropped)
attr title "packet drops: incorrectly received, count"
scalar manet.host[0].wlan[0].mac packetDropIncorrectlyReceived:sum(packetBytes) 121092
attr interpolationmode none
attr source packetDropReasonIsIncorrectlyReceived(packetDropped)
attr title "packet drops: incorrectly received, sum(packetBytes)"
scalar manet.host[0].wlan[0].mac packetDropNotAddressedToUs:count 2418
attr interpolationmode none
attr source packetDropReasonIsNotAddressedToUs(packetDropped)
attr title "packet drops: not addressed to us, count"
scalar manet.host[0].wlan[0].mac packetDropNotAddressedToUs:sum(packetBytes) 1713368
attr interpolationmode none
attr source packetDropReasonIsNotAddressedToUs(packetDropped)
attr title "packet drops: not addressed to us, sum(packetBytes)"
scalar manet.host[0].wlan[0].mac packetDropQueueOverflow:count 40
attr interpolationmode none
attr source packetDropReasonIsQueueOverflow(packetDropped)
attr title "packet drops: queue overflow, count"
scalar manet.host[0].wlan[0].mac packetDropQueueOverflow:sum(packetBytes) 82304
attr interpolationmode none
attr source packetDropReasonIsQueueOverflow(packetDropped)
attr title "packet drops: queue overflow, sum(packetBytes)"
scalar manet.host[0].wlan[0].mac packetDropRetryLimitReached:count 203
attr interpolationmode none
attr source packetDropReasonIsRetryLimitReached(packetDropped)
attr title "packet drops: retry limit reached, count"
scalar manet.host[0].wlan[0].mac packetDropRetryLimitReached:sum(packetBytes) 227992
attr interpolationmode none
attr source packetDropReasonIsRetryLimitReached(packetDropped)
attr title "packet drops: retry limit reached, sum(packetBytes)"
scalar manet.host[0].wlan[0].mac packetDropDuplicateDetected:count 60
attr interpolationmode none
attr source packetDropReasonIsDuplicateDetected(packetDropped)
attr title "packet drops: duplicate detected, count"
scalar manet.host[0].wlan[0].mac packetDropDuplicateDetected:sum(packetBytes) 5928
attr interpolationmode none
attr source packetDropReasonIsDuplicateDetected(packetDropped)
attr title "packet drops: duplicate detected, sum(packetBytes)"
scalar manet.host[0].wlan[0].mac packetDropOther:count 0
attr interpolationmode none
attr source packetDropReasonIsOther(packetDropped)
attr title "packet drops: other, count"
scalar manet.host[0].wlan[0].mac packetDropOther:sum(packetBytes) 0
attr interpolationmode none
attr source packetDropReasonIsOther(packetDropped)
attr title "packet drops: other, sum(packetBytes)"
scalar manet.host[0].wlan[0].mac linkBroken:count 203
attr interpolationmode none
attr title "link breaks, count"
statistic manet.host[0].wlan[0].radio minSnir:histogram
field count 3955
field mean 8297.8263737667
field stddev 44724.265045039
field min 0.024490263627661
field max 1782571.4710689
field sum 32817903.308247
field sqrsum 8181344844222.8
attr source minimumSnir(packetSentToUpper)
attr title "Min SNIR, histogram"
bin	-inf	0
bin	0	3801
bin	36000	78
bin	72000	30
bin	108000	12
bin	144000	9
bin	180000	6
bin	216000	3
bin	252000	5
bin	288000	1
bin	324000	2
bin	360000	0
bin	396000	1
bin	432000	1
bin	468000	0
bin	504000	1
bin	540000	1
bin	576000	0
bin	612000	1
bin	648000	0
bin	684000	0
bin	720000	0
bin	756000	0
bin	792000	0
bin	828000	1
bin	864000	0
bin	900000	1
bin	936000	0
bin	972000	0
bin	1008000	0
bin	1044000	0
bin	1080000	0
bin	1116000	0
bin	1152000	0
bin	1188000	0
bin	1224000	0
bin	1260000	0
bin	1296000	0
bin	1332000	0
bin	1368000	0
bin	1404000	0
bin	1440000	0
bin	1476000	0
bin	1512000	0
bin	1548000	0
bin	1584000	0
bin	1620000	0
bin	1656000	0
bin	1692000	0
bin	1728000	0
bin	1764000	1
bin	1800000	0
statistic manet.host[0].wlan[0].radio packetErrorRate:histogram
field count 3955
field mean 0.045388668255162
field stddev 0.2073649329043
field min 0
field max 1
field sum 179.51218294917
field sqrsum 178.17067060494
attr source packetErrorRate(packetSentToUpper)
attr title "Packet error rate, histogram"
bin	-inf	0
bin	0	3767
bin	0.02	2
bin	0.04	1
bin	0.06	1
bin	0.08	1
bin	0.1	0
bin	0.12	1
bin	0.14	0
bin	0.16	0
bin	0.18	0
bin	0.2	1
bin	0.22	1
bin	0.24	0
bin	0.26	0
bin	0.28	0
bin	0.3	0
bin	0.32	0
bin	0.34	1
bin	0.36	0
bin	0.38	0
bin	0.4	0
bin	0.42	0
bin	0.44	0
bin	0.46	1
bin	0.48	0
bin	0.5	0
bin	0.52	0
bin	0.54	0
bin	0.56	0
bin	0.58	0
bin	0.6	0
bin	0.62	0
bin	0.64	0
bin	0.66	0
bin	0.68	0
bin	0.7	0
bin	0.72	0
bin	0.74	0
bin	0.76	0
bin	0.78	0
bin	0.8	0
bin	0.82	0
bin	0.84	1
bin	0.86	0
bin	0.88	0
bin	0.9	0
bin	0.92	0
bin	0.94	0
bin	0.96	0
bin	0.98	4
bin	1	173
bin	1.02	0
bin	1.04	0
bin	1.06	0
bin	1.08	0
bin	1.1	0
bin	1.12	0
bin	1.14	0
bin	1.16	0
bin	1.18	0
bin	1.2	0
bin	1.22	0
bin	1.24	0
bin	1.26	0
statistic manet.host[0].wlan[0].radio bitErrorRate:histogram
field count 0
field mean nan
field stddev nan
field min nan
field max nan
field sum 0
field sqrsum 0
attr source bitErrorRate(packetSentToUpper)
attr title "Bit error rate, histogram"
bin	-inf	0
bin	0	0
bin	1	0
statistic manet.host[0].wlan[0].radio symbolErrorRate:histogram
field count 0
field mean nan
field stddev nan
field min nan
field max nan
field sum 0
field sqrsum 0
attr source symbolErrorRate(packetSentToUpper)
attr title "Symbol error rate, histogram"
bin	-inf	0
bin	0	0
bin	1	0
scalar manet.host[0].wlan[0].radio transmissionState:count 13124
attr interpolationmode sample-hold
attr source transmissionStateChanged
attr title "Radio transmission state, count"
scalar manet.host[0].wlan[0].radio receptionState:count 14600
attr interpolationmode sample-hold
attr source receptionStateChanged
attr title "Radio reception state, count"
scalar manet.host[0].wlan[0].radio radioMode:count 6565
attr interpolationmode sample-hold
attr source radioModeChanged
attr title "Radio mode, count"
statistic manet.host[0].wlan[0].radio radioChannel:histogram
field count 1
field mean 8
field stddev nan
field min 8
field max 8
field sum 8
field sqrsum 64
attr interpolationmode sample-hold
attr source radioChannelChanged
attr title "Radio channel, histogram"
bin	-inf	0
bin	7	0
bin	8	1
bin	9	0
scalar manet.host[0].ipv4.ip packetDropAddressResolutionFailed:count 35
attr interpolationmode none
attr source packetDropReasonIsAddressResolutionFailed(packetDropped)
attr title "packet drop: address resolution failed, count"
scalar manet.host[0].ipv4.ip packetDropAddressResolutionFailed:sum(packetBytes) 60958
attr interpolationmode none
attr source packetDropReasonIsAddressResolutionFailed(packetDropped)
attr title "packet drop: address resolution failed, sum(packetBytes)"
scalar manet.host[0].ipv4.ip packetDropHopLimitReached:count 0
attr interpolationmode none
attr source packetDropReasonIsHopLimitReached(packetDropped)
attr title "packet drop: hop limit reached, count"
scalar manet.host[0].ipv4.ip packetDropHopLimitReached:sum(packetBytes) 0
attr interpolationmode none
attr source packetDropReasonIsHopLimitReached(packetDropped)
attr title "packet drop: hop limit reached, sum(packetBytes)"
scalar manet.host[0].ipv4.ip packetDropForwardingDisabled:count 0
attr interpolationmode none
attr source packetDropReasonIsForwardingDisabled(packetDropped)
attr title "packet drop: forwarding disabled, count"
scalar manet.host[0].ipv4.ip packetDropForwardingDisabled:sum(packetBytes) 0
attr interpolationmode none
attr source packetDropReasonIsForwardingDisabled(packetDropped)
attr title "packet drop: forwarding disabled, sum(packetBytes)"
scalar manet.host[0].ipv4.ip packetDropNoInterfaceFound:count 0
attr interpolationmode none
attr source packetDropReasonIsNoInterfaceFound(packetDropped)
attr title "packet drop: no interface found, count"
scalar manet.host[0].ipv4.ip packetDropNoInterfaceFound:sum(packetBytes) 0
attr interpolationmode none
attr source packetDropReasonIsNoInterfaceFound(packetDropped)
attr title "packet drop: no interface found, sum(packetBytes)"
scalar manet.host[0].ipv4.ip packetDropNoRouteFound:count 0
attr interpolationmode none
attr source packetDropReasonIsNoRouteFound(packetDropped)
attr title "packet drop: no route found, count"
scalar manet.host[0].ipv4.ip packetDropNoRouteFound:sum(packetBytes) 0
attr interpolationmode none
attr source packetDropReasonIsNoRouteFound(packetDropped)
attr title "packet drop: no route found, sum(packetBytes)"
scalar manet.host[0].ipv4.ip packetDropUndefined:count 0
attr interpolationmode none
attr source packetDropReasonIsUndefined(packetDropped)
attr title "packet drop: undefined, count"
scalar manet.host[0].ipv4.ip packetDropUndefined:sum(packetBytes) 0
attr interpolationmode none
attr source packetDropReasonIsUndefined(packetDropped)
attr title "packet drop: undefined, sum(packetBytes)"
scalar manet.host[0].ipv4.arp arpReplySent:count 4
attr source arpReplySent
attr title "ARP replies sent, count"
scalar manet.host[0].ipv4.arp arpReplySent:sum(packetBytes) 112
attr source arpReplySent
attr title "ARP replies sent, sum(packetBytes)"
scalar manet.host[0].ipv4.arp arpRequestSent:count 7
attr source arpRequestSent
attr title "ARP request sent, count"
scalar manet.host[0].ipv4.arp arpRequestSent:sum(packetBytes) 196
attr source arpRequestSent
attr title "ARP request sent, sum(packetBytes)"
scalar manet.host[0].ipv4.arp arpResolutionFailed:count 1
attr title "ARP failed resolutions, count"
scalar manet.host[0].ipv4.arp arpResolutionCompleted:count 7
attr title "ARP completed resolutions, count"
scalar manet.host[0].ipv4.arp arpResolutionInitiated:count 3
attr title "ARP initiated resolutions, count"
scalar manet.host[0].udp packetReceived:count 0
attr interpolationmode none
attr source packetReceived
attr title "packets received, count"
scalar manet.host[0].udp packetReceived:sum(packetBytes) 0
attr interpolationmode none
attr source packetReceived
attr title "packets received, sum(packetBytes)"
scalar manet.host[0].udp packetSent:count 107
attr interpolationmode none
attr source packetSent
attr title "packets sent, count"
scalar manet.host[0].udp packetSent:sum(packetBytes) 1070856
attr interpolationmode none
attr source packetSent
attr title "packets sent, sum(packetBytes)"
scalar manet.host[0].udp passedUpPk:count 0
attr interpolationmode none
attr source packetSentToUpper
attr title "packets passed up, count"
scalar manet.host[0].udp droppedPkWrongPort:count 0
attr interpolationmode none
attr source packetDropReasonIsNoPortFound(packetDropped)
attr title "packets dropped (wrong port), count"
scalar manet.host[0].udp droppedPkBadChecksum:count 0
attr interpolationmode none
attr source packetDropReasonIsIncorrectlyReceived(packetDropped)
attr title "packets dropped (checksum error), count"
scalar manet.host[0].app[0] "packets sent" 107
scalar manet.host[0].app[0] "packets received" 0
scalar manet.host[0].app[0] packetReceived:count 0
attr interpolationmode none
attr source packetReceived
attr title "packets received, count"
scalar manet.host[0].app[0] packetReceived:sum(packetBytes) 0
attr interpolationmode none
attr source packetReceived
attr title "packets received, sum(packetBytes)"
statistic manet.host[0].app[0] rcvdPkLifetime:stats
field count 0
field mean nan
field stddev nan
field min nan
field max nan
field sum 0
field sqrsum 0
attr interpolationmode none
attr source dataAge(packetReceived)
attr title "received packet lifetime, stats"
attr unit s
scalar manet.host[0].app[0] packetSent:count 107
attr interpolationmode none
attr source packetSent
attr title "packets sent, count"
scalar manet.host[0].app[0] packetSent:sum(packetBytes) 1070000
attr interpolationmode none
attr source packetSent
attr title "packets sent, sum(packetBytes)"
scalar manet.host[1].energyStorage residualEnergyCapacity:last 4.1946218781032
attr interpolationmode linear
attr source residualEnergyCapacityChanged
attr title "Residual energy capacity, last"
scalar manet.host[1].lo[0].lo rcvdPkFromHl:count 0
attr interpolationmode none
attr source packetReceivedFromUpper
attr title "packets received from higher layer, count"
scalar manet.host[1].lo[0].lo rcvdPkFromHl:sum(packetBytes) 0
attr interpolationmode none
attr source packetReceivedFromUpper
attr title "packets received from higher layer, sum(packetBytes)"
scalar manet.host[1].lo[0].lo passedUpPk:count 0
attr interpolationmode none
attr source packetSentToUpper
attr title "packets passed to higher layer, count"
scalar manet.host[1].lo[0].lo passedUpPk:sum(packetBytes) 0
attr interpolationmode none
attr source packetSentToUpper
attr title "packets passed to higher layer, sum(packetBytes)"
scalar manet.host[1].wlan[0].mac.dcf.channelAccess.pendingQueue packetPopped:count 267
attr interpolationmode none
attr title "packet popped, count"
scalar manet.host[1].wlan[0].mac.dcf.channelAccess.pendingQueue packetPopped:sum(packetBytes) 24462
attr interpolationmode none
attr title "packet popped, sum(packetBytes)"
statistic manet.host[1].wlan[0].mac.dcf.channelAccess.pendingQueue queueingTime:histogram
field count 267
field mean 0.05285622590109
field stddev 0.079679876066436
field min 0
field max 0.390905688222
field sum 14.112612315591
field sqrsum 2.4347422094974
attr interpolationmode none
attr source queueingTime(packetPopped)
attr title "queueing times, histogram"
attr unit s
bin	-inf	0
bin	0	107
bin	0.01	29
bin	0.02	18
bin	0.03	20
bin	0.04	7
bin	0.05	8
bin	0.06	11
bin	0.07	14
bin	0.08	4
bin	0.09	4
bin	0.1	2
bin	0.11	6
bin	0.12	2
bin	0.13	1
bin	0.14	4
bin	0.15	0
bin	0.16	2
bin	0.17	0
bin	0.18	4
bin	0.19	5
bin	0.2	2
bin	0.21	1
bin	0.22	0
bin	0.23	2
bin	0.24	3
bin	0.25	1
bin	0.26	2
bin	0.27	1
bin	0.28	0
bin	0.29	1
bin	0.3	1
bin	0.31	1
bin	0.32	0
bin	0.33	0
bin	0.34	0
bin	0.35	0
bin	0.36	1
bin	0.37	1
bin	0.38	1
bin	0.39	1
bin	0.4	0
bin	0.41	0
bin	0.42	0
bin	0.43	0
bin	0.44	0
bin	0.45	0
bin	0.46	0
bin	0.47	0
bin	0.48	0
bin	0.49	0
scalar manet.host[1].wlan[0].mac.dcf.channelAccess.pendingQueue queueLength:max 26
attr interpolationmode sample-hold
attr source "count(packetPushed) - count(packetPopped) - count(packetRemoved) - count(packetDropped)"
attr title "queue length, max"
scalar manet.host[1].wlan[0].mac.dcf.channelAccess.pendingQueue queueLength:timeavg 0.26533737098513
attr interpolationmode sample-hold
attr source "count(packetPushed) - count(packetPopped) - count(packetRemoved) - count(packetDropped)"
attr title "queue length, timeavg"
scalar manet.host[1].wlan[0].mac.dcf.channelAccess.pendingQueue packetPushed:count 267
attr interpolationmode none
attr title "packet pushed, count"
scalar manet.host[1].wlan[0].mac.dcf.channelAccess.pendingQueue packetPushed:sum(packetBytes) 24462
attr interpolationmode none
attr title "packet pushed, sum(packetBytes)"
scalar manet.host[1].wlan[0].mac.dcf.channelAccess.pendingQueue packetDropQueueOverflow:count 0
attr interpolationmode none
attr source packetDropReasonIsQueueOverflow(packetDropped)
attr title "packet drops: queue overflow, count"
scalar manet.host[1].wlan[0].mac.dcf.channelAccess.pendingQueue packetDropQueueOverflow:sum(packetBytes) 0
attr interpolationmode none
attr source packetDropReasonIsQueueOverflow(packetDropped)
attr title "packet drops: queue overflow, sum(packetBytes)"
scalar manet.host[1].wlan[0].mac.dcf.channelAccess.pendingQueue packetRemoved:count 0
attr interpolationmode none
attr title "packets removed, count"
scalar manet.host[1].wlan[0].mac.dcf.channelAccess.pendingQueue packetRemoved:sum(packetBytes) 0
attr interpolationmode none
attr title "packets removed, sum(packetBytes)"
statistic manet.host[1].wlan[0].mac.dcf.channelAccess.inProgressFrames queueingTime:histogram
field count 267
field mean 0.014353815137461
field stddev 0.017076857245953
field min 3.8e-005
field max 0.072990460595
field sum 3.832468641702
field sqrsum 0.13258121460715
attr interpolationmode none
attr source queueingTime(packetDequeued)
attr title "queueing times, histogram"
bin	-inf	0
bin	0	72
bin	0.001	21
bin	0.002	4
bin	0.003	7
bin	0.004	5
bin	0.005	11
bin	0.006	8
bin	0.007	7
bin	0.008	10
bin	0.009	6
bin	0.01	4
bin	0.011	6
bin	0.012	7
bin	0.013	7
bin	0.014	3
bin	0.015	2
bin	0.016	4
bin	0.017	7
bin	0.018	5
bin	0.019	2
bin	0.02	0
bin	0.021	2
bin	0.022	2
bin	0.023	4
bin	0.024	2
bin	0.025	2
bin	0.026	3
bin	0.027	2
bin	0.028	2
bin	0.029	2
bin	0.03	2
bin	0.031	1
bin	0.032	1
bin	0.033	0
bin	0.034	1
bin	0.035	2
bin	0.036	4
bin	0.037	1
bin	0.038	5
bin	0.039	0
bin	0.04	2
bin	0.041	2
bin	0.042	1
bin	0.043	0
bin	0.044	2
bin	0.045	2
bin	0.046	0
bin	0.047	1
bin	0.048	4
bin	0.049	1
bin	0.05	3
bin	0.051	0
bin	0.052	2
bin	0.053	1
bin	0.054	0
bin	0.055	2
bin	0.056	2
bin	0.057	0
bin	0.058	0
bin	0.059	2
bin	0.06	1
bin	0.061	1
bin	0.062	0
bin	0.063	0
bin	0.064	0
bin	0.065	0
bin	0.066	0
bin	0.067	0
bin	0.068	0
bin	0.069	0
bin	0.07	1
bin	0.071	0
bin	0.072	1
bin	0.073	0
bin	0.074	0
bin	0.075	0
scalar manet.host[1].wlan[0].mac.dcf.channelAccess.inProgressFrames queueLength:max 2
attr interpolationmode sample-hold
attr source "count(packetEnqueued) - count(packetDequeued)"
attr title "queue length, max"
scalar manet.host[1].wlan[0].mac.dcf.channelAccess.inProgressFrames queueLength:timeavg 0.072056108629131
attr interpolationmode sample-hold
attr source "count(packetEnqueued) - count(packetDequeued)"
attr title "queue length, timeavg"
scalar manet.host[1].wlan[0].mac.dcf.channelAccess.contention stateChanged:count 27166
attr interpolationmode none
attr title "contention state changed, count"
scalar manet.host[1].wlan[0].mac.dcf.channelAccess.contention channelAccessGranted:count 1021
attr title "channel access granted, count"
scalar manet.host[1].wlan[0].mac.dcf.channelAccess channelOwnershipChanged:count 2042
attr interpolationmode sample-hold
attr title "channel ownership, count"
scalar manet.host[1].wlan[0].mac.dcf.originatorMacDataService packetAggregated:count 0
attr title "packets aggregated, count"
scalar manet.host[1].wlan[0].mac.dcf.originatorMacDataService packetFragmented:count 0
attr title "packets fragmented, count"
scalar manet.host[1].wlan[0].mac.dcf.recipientMacDataService packetDropDuplicateDetected:count 357
attr interpolationmode none
attr source packetDropReasonIsDuplicateDetected(packetDropped)
attr title "packet drops: duplicate detected, count"
scalar manet.host[1].wlan[0].mac.dcf.recipientMacDataService packetDropDuplicateDetected:sum(packetBytes) 409664
attr interpolationmode none
attr source packetDropReasonIsDuplicateDetected(packetDropped)
attr title "packet drops: duplicate detected, sum(packetBytes)"
scalar manet.host[1].wlan[0].mac.dcf.recipientMacDataService packetDeaggregated:count 0
attr title "packets deaggregated, count"
scalar manet.host[1].wlan[0].mac.dcf.recipientMacDataService packetDefragmented:count 832
attr title "packets defragmented, count"
scalar manet.host[1].wlan[0].mac.dcf.recoveryProcedure retryLimitReached:count 86
attr title "retry limit reached, count"
scalar manet.host[1].wlan[0].mac.dcf packetReceivedFromPeer:count 1569
attr interpolationmode none
attr title "packets received, count"
scalar manet.host[1].wlan[0].mac.dcf packetReceivedFromPeer:sum(packetBytes) 1147792
attr interpolationmode none
attr title "packets received, sum(packetBytes)"
scalar manet.host[1].wlan[0].mac.dcf packetReceivedFromPeerUnicast:count 1052
attr interpolationmode none
attr source ieee80211Unicast(packetReceivedFromPeer)
attr title "packets received: unicast, count"
scalar manet.host[1].wlan[0].mac.dcf packetReceivedFromPeerUnicast:sum(packetBytes) 1087028
attr interpolationmode none
attr source ieee80211Unicast(packetReceivedFromPeer)
attr title "packets received: unicast, sum(packetBytes)"
scalar manet.host[1].wlan[0].mac.dcf packetReceivedFromPeerMulticast:count 517
attr interpolationmode none
attr source ieee80211Multicast(packetReceivedFromPeer)
attr title "packets received: multicast, count"
scalar manet.host[1].wlan[0].mac.dcf packetReceivedFromPeerMulticast:sum(packetBytes) 60764
attr interpolationmode none
attr source ieee80211Multicast(packetReceivedFromPeer)
attr title "packets received: multicast, sum(packetBytes)"
scalar manet.host[1].wlan[0].mac.dcf packetReceivedFromPeerBroadcast:count 3
attr interpolationmode none
attr source ieee80211Broadcast(packetReceivedFromPeer)
attr title "packets received: broadcast, count"
scalar manet.host[1].wlan[0].mac.dcf packetReceivedFromPeerBroadcast:sum(packetBytes) 192
attr interpolationmode none
attr source ieee80211Broadcast(packetReceivedFromPeer)
attr title "packets received: broadcast, sum(packetBytes)"
scalar manet.host[1].wlan[0].mac.dcf packetReceivedFromPeerWithRetry:count 745
attr interpolationmode none
attr source ieee80211Retry(packetReceivedFromPeer)
attr title "packets received: with retry, count"
scalar manet.host[1].wlan[0].mac.dcf packetReceivedFromPeerWithRetry:sum(packetBytes) 863984
attr interpolationmode none
attr source ieee80211Retry(packetReceivedFromPeer)
attr title "packets received: with retry, sum(packetBytes)"
scalar manet.host[1].wlan[0].mac.dcf packetReceivedFromPeerWithoutRetry:count 824
attr interpolationmode none
attr source ieee80211NotRetry(packetReceivedFromPeer)
attr title "packets received: without retry, count"
scalar manet.host[1].wlan[0].mac.dcf packetReceivedFromPeerWithoutRetry:sum(packetBytes) 283808
attr interpolationmode none
attr source ieee80211NotRetry(packetReceivedFromPeer)
attr title "packets received: without retry, sum(packetBytes)"
scalar manet.host[1].wlan[0].mac.dcf packetSentToPeer:count 1969
attr interpolationmode none
attr title "packets sent, count"
scalar manet.host[1].wlan[0].mac.dcf packetSentToPeer:sum(packetBytes) 107102
attr interpolationmode none
attr title "packets sent, sum(packetBytes)"
scalar manet.host[1].wlan[0].mac.dcf packetSentToPeerUnicast:count 1892
attr interpolationmode none
attr source ieee80211Unicast(packetSentToPeer)
attr title "packets sent: unicast, count"
scalar manet.host[1].wlan[0].mac.dcf packetSentToPeerUnicast:sum(packetBytes) 100120
attr interpolationmode none
attr source ieee80211Unicast(packetSentToPeer)
attr title "packets sent: unicast, sum(packetBytes)"
scalar manet.host[1].wlan[0].mac.dcf packetSentToPeerMulticast:count 77
attr interpolationmode none
attr source ieee80211Multicast(packetSentToPeer)
attr title "packets sent: multicast, count"
scalar manet.host[1].wlan[0].mac.dcf packetSentToPeerMulticast:sum(packetBytes) 6982
attr interpolationmode none
attr source ieee80211Multicast(packetSentToPeer)
attr title "packets sent: multicast, sum(packetBytes)"
scalar manet.host[1].wlan[0].mac.dcf packetSentToPeerBroadcast:count 21
attr interpolationmode none
attr source ieee80211Broadcast(packetSentToPeer)
attr title "packets sent: broadcast , count"
scalar manet.host[1].wlan[0].mac.dcf packetSentToPeerBroadcast:sum(packetBytes) 1344
attr interpolationmode none
attr source ieee80211Broadcast(packetSentToPeer)
attr title "packets sent: broadcast , sum(packetBytes)"
scalar manet.host[1].wlan[0].mac.dcf packetSentToPeerWithRetry:count 754
attr interpolationmode none
attr source ieee80211Retry(packetSentToPeer)
attr title "packets sent: with retry, count"
scalar manet.host[1].wlan[0].mac.dcf packetSentToPeerWithRetry:sum(packetBytes) 69368
attr interpolationmode none
attr source ieee80211Retry(packetSentToPeer)
attr title "packets sent: with retry, sum(packetBytes)"
scalar manet.host[1].wlan[0].mac.dcf packetSentToPeerWithoutRetry:count 1215
attr interpolationmode none
attr source ieee80211NotRetry(packetSentToPeer)
attr title "packets sent: without retry, count"
scalar manet.host[1].wlan[0].mac.dcf packetSentToPeerWithoutRetry:sum(packetBytes) 37734
attr interpolationmode none
attr source ieee80211NotRetry(packetSentToPeer)
attr title "packets sent: without retry, sum(packetBytes)"
scalar manet.host[1].wlan[0].mac.dcf packetDrop:count 1838
attr interpolationmode none
attr source packetDropped
attr title "packet drops, count"
scalar manet.host[1].wlan[0].mac.dcf packetDrop:sum(packetBytes) 1054028
attr interpolationmode none
attr source packetDropped
attr title "packet drops, sum(packetBytes)"
scalar manet.host[1].wlan[0].mac.dcf packetDropNotAddressedToUs:count 1395
attr interpolationmode none
attr source packetDropReasonIsNotAddressedToUs(packetDropped)
attr title "packet drops: not addressed to us, count"
scalar manet.host[1].wlan[0].mac.dcf packetDropNotAddressedToUs:sum(packetBytes) 636452
attr interpolationmode none
attr source packetDropReasonIsNotAddressedToUs(packetDropped)
attr title "packet drops: not addressed to us, sum(packetBytes)"
scalar manet.host[1].wlan[0].mac.dcf packetDropQueueOverflow:count 0
attr interpolationmode none
attr source packetDropReasonIsQueueOverflow(packetDropped)
attr title "packet drops: queue overflow, count"
scalar manet.host[1].wlan[0].mac.dcf packetDropQueueOverflow:sum(packetBytes) 0
attr interpolationmode none
attr source packetDropReasonIsQueueOverflow(packetDropped)
attr title "packet drops: queue overflow, sum(packetBytes)"
scalar manet.host[1].wlan[0].mac.dcf packetDropRetryLimitReached:count 86
attr interpolationmode none
attr source packetDropReasonIsRetryLimitReached(packetDropped)
attr title "packet drops: retry limit reached, count"
scalar manet.host[1].wlan[0].mac.dcf packetDropRetryLimitReached:sum(packetBytes) 7912
attr interpolationmode none
attr source packetDropReasonIsRetryLimitReached(packetDropped)
attr title "packet drops: retry limit reached, sum(packetBytes)"
scalar manet.host[1].wlan[0].mac.dcf linkBroken:count 86
attr interpolationmode none
attr title "link breaks, count"
scalar manet.host[1].wlan[0].mac.dcf frameSequenceFinished:count 1021
attr title "finished frame sequences, count"
statistic manet.host[1].wlan[0].mac.dcf frameSequenceDuration:histogram
field count 1021
field mean 8.3543145904996e-005
field stddev 1.3028704128154e-005
field min 3.8e-005
field max 0.000225974835
field sum 0.085297551969001
field sqrsum 7.2991679033694e-006
attr source frameSequenceDuration(frameSequenceFinished)
attr title "frame sequence durations, histogram"
bin	-inf	0
bin	2.4e-005	0
bin	2.8e-005	0
bin	3.2e-005	0
bin	3.6e-005	21
bin	4e-005	38
bin	4.4e-005	18
bin	4.8e-005	0
bin	5.2e-005	0
bin	5.6e-005	0
bin	6e-005	0
bin	6.4e-005	0
bin	6.8e-005	0
bin	7.2e-005	0
bin	7.6e-005	0
bin	8e-005	0
bin	8.4e-005	836
bin	8.8e-005	57
bin	9.2e-005	43
bin	9.6e-005	1
bin	0.0001	1
bin	0.000104	1
bin	0.000108	1
bin	0.000112	0
bin	0.000116	1
bin	0.00012	0
bin	0.000124	2
bin	0.000128	0
bin	0.000132	0
bin	0.000136	0
bin	0.00014	0
bin	0.000144	0
bin	0.000148	0
bin	0.000152	0
bin	0.000156	0
bin	0.00016	0
bin	0.000164	0
bin	0.000168	0
bin	0.000172	0
bin	0.000176	0
bin	0.00018	0
bin	0.000184	0
bin	0.000188	0
bin	0.000192	0
bin	0.000196	0
bin	0.0002	0
bin	0.000204	0
bin	0.000208	0
bin	0.000212	0
bin	0.000216	0
bin	0.00022	0
bin	0.000224	1
bin	0.000228	0
statistic manet.host[1].wlan[0].mac.dcf frameSequenceNumPackets:histogram
field count 1021
field mean 1.92458374143
field stddev 0.26419123363859
field min 1
field max 2
field sum 1965
field sqrsum 3853
attr source frameSequenceNumPackets(frameSequenceFinished)
attr title "frame sequences: number of packets, histogram"
bin	-inf	0
bin	0	0
bin	1	77
bin	2	944
bin	3	0
scalar manet.host[1].wlan[0].mac packetReceivedFromLower:count 3223
attr interpolationmode none
attr title "packets received from lower layer, count"
scalar manet.host[1].wlan[0].mac packetReceivedFromLower:sum(packetBytes) 1977188
attr interpolationmode none
attr title "packets received from lower layer, sum(packetBytes)"
scalar manet.host[1].wlan[0].mac packetSentToLower:count 1969
attr interpolationmode none
attr title "packets sent to lower layer, count"
scalar manet.host[1].wlan[0].mac packetSentToLower:sum(packetBytes) 107102
attr interpolationmode none
attr title "packets sent to lower layer, sum(packetBytes)"
scalar manet.host[1].wlan[0].mac packetReceivedFromUpper:count 267
attr interpolationmode none
attr title "packets received from upper layer, count"
scalar manet.host[1].wlan[0].mac packetReceivedFromUpper:sum(packetBytes) 16986
attr interpolationmode none
attr title "packets received from upper layer, sum(packetBytes)"
scalar manet.host[1].wlan[0].mac packetSentToUpper:count 832
attr interpolationmode none
attr title "packets sent to upper layer, count"
scalar manet.host[1].wlan[0].mac packetSentToUpper:sum(packetBytes) 666412
attr interpolationmode none
attr title "packets sent to upper layer, sum(packetBytes)"
scalar manet.host[1].wlan[0].mac packetDrop:count 2090
attr interpolationmode none
attr source packetDropped
attr title "packet drops, count"
scalar manet.host[1].wlan[0].mac packetDrop:sum(packetBytes) 1245418
attr interpolationmode none
attr source packetDropped
attr title "packet drops, sum(packetBytes)"
scalar manet.host[1].wlan[0].mac packetDropIncorrectlyReceived:count 252
attr interpolationmode none
attr source packetDropReasonIsIncorrectlyReceived(packetDropped)
attr title "packet drops: incorrectly received, count"
scalar manet.host[1].wlan[0].mac packetDropIncorrectlyReceived:sum(packetBytes) 191390
attr interpolationmode none
attr source packetDropReasonIsIncorrectlyReceived(packetDropped)
attr title "packet drops: incorrectly received, sum(packetBytes)"
scalar manet.host[1].wlan[0].mac packetDropNotAddressedToUs:count 1395
attr interpolationmode none
attr source packetDropReasonIsNotAddressedToUs(packetDropped)
attr title "packet drops: not addressed to us, count"
scalar manet.host[1].wlan[0].mac packetDropNotAddressedToUs:sum(packetBytes) 636452
attr interpolationmode none
attr source packetDropReasonIsNotAddressedToUs(packetDropped)
attr title "packet drops: not addressed to us, sum(packetBytes)"
scalar manet.host[1].wlan[0].mac packetDropQueueOverflow:count 0
attr interpolationmode none
attr source packetDropReasonIsQueueOverflow(packetDropped)
attr title "packet drops: queue overflow, count"
scalar manet.host[1].wlan[0].mac packetDropQueueOverflow:sum(packetBytes) 0
attr interpolationmode none
attr source packetDropReasonIsQueueOverflow(packetDropped)
attr title "packet drops: queue overflow, sum(packetBytes)"
scalar manet.host[1].wlan[0].mac packetDropRetryLimitReached:count 86
attr interpolationmode none
attr source packetDropReasonIsRetryLimitReached(packetDropped)
attr title "packet drops: retry limit reached, count"
scalar manet.host[1].wlan[0].mac packetDropRetryLimitReached:sum(packetBytes) 7912
attr interpolationmode none
attr source packetDropReasonIsRetryLimitReached(packetDropped)
attr title "packet drops: retry limit reached, sum(packetBytes)"
scalar manet.host[1].wlan[0].mac packetDropDuplicateDetected:count 357
attr interpolationmode none
attr source packetDropReasonIsDuplicateDetected(packetDropped)
attr title "packet drops: duplicate detected, count"
scalar manet.host[1].wlan[0].mac packetDropDuplicateDetected:sum(packetBytes) 409664
attr interpolationmode none
attr source packetDropReasonIsDuplicateDetected(packetDropped)
attr title "packet drops: duplicate detected, sum(packetBytes)"
scalar manet.host[1].wlan[0].mac packetDropOther:count 0
attr interpolationmode none
attr source packetDropReasonIsOther(packetDropped)
attr title "packet drops: other, count"
scalar manet.host[1].wlan[0].mac packetDropOther:sum(packetBytes) 0
attr interpolationmode none
attr source packetDropReasonIsOther(packetDropped)
attr title "packet drops: other, sum(packetBytes)"
scalar manet.host[1].wlan[0].mac linkBroken:count 86
attr interpolationmode none
attr title "link breaks, count"
statistic manet.host[1].wlan[0].radio minSnir:histogram
field count 3223
field mean 3911.2698816245
field stddev 17344.034983249
field min 0.0077993149383211
field max 654549.71368383
field sum 12606022.828476
field sqrsum 1018533257905.6
attr source minimumSnir(packetSentToUpper)
attr title "Min SNIR, histogram"
bin	-inf	0
bin	0	3030
bin	12000	114
bin	24000	31
bin	36000	11
bin	48000	11
bin	60000	4
bin	72000	7
bin	84000	3
bin	96000	1
bin	108000	0
bin	120000	2
bin	132000	0
bin	144000	3
bin	156000	0
bin	168000	0
bin	180000	1
bin	192000	1
bin	204000	0
bin	216000	0
bin	228000	1
bin	240000	1
bin	252000	0
bin	264000	1
bin	276000	0
bin	288000	0
bin	300000	0
bin	312000	0
bin	324000	0
bin	336000	0
bin	348000	0
bin	360000	0
bin	372000	0
bin	384000	0
bin	396000	0
bin	408000	0
bin	420000	0
bin	432000	0
bin	444000	0
bin	456000	0
bin	468000	0
bin	480000	0
bin	492000	0
bin	504000	0
bin	516000	0
bin	528000	0
bin	540000	0
bin	552000	0
bin	564000	0
bin	576000	0
bin	588000	0
bin	600000	0
bin	612000	0
bin	624000	0
bin	636000	0
bin	648000	1
bin	660000	0
statistic manet.host[1].wlan[0].radio packetErrorRate:histogram
field count 3223
field mean 0.078209863600035
field stddev 0.26691512843438
field min 0
field max 1
field sum 252.07039038291
field sqrsum 249.26154645563
attr source packetErrorRate(packetSentToUpper)
attr title "Packet error rate, histogram"
bin	-inf	0
bin	0	2963
bin	0.02	0
bin	0.04	0
bin	0.06	1
bin	0.08	0
bin	0.1	2
bin	0.12	0
bin	0.14	0
bin	0.16	0
bin	0.18	0
bin	0.2	1
bin	0.22	0
bin	0.24	0
bin	0.26	0
bin	0.28	0
bin	0.3	0
bin	0.32	1
bin	0.34	0
bin	0.36	1
bin	0.38	0
bin	0.4	0
bin	0.42	1
bin	0.44	1
bin	0.46	0
bin	0.48	0
bin	0.5	0
bin	0.52	1
bin	0.54	0
bin	0.56	1
bin	0.58	0
bin	0.6	0
bin	0.62	1
bin	0.64	0
bin	0.66	0
bin	0.68	0
bin	0.7	0
bin	0.72	0
bin	0.74	0
bin	0.76	0
bin	0.78	0
bin	0.8	0
bin	0.82	1
bin	0.84	1
bin	0.86	0
bin	0.88	2
bin	0.9	1
bin	0.92	2
bin	0.94	0
bin	0.96	0
bin	0.98	6
bin	1	236
bin	1.02	0
bin	1.04	0
bin	1.06	0
bin	1.08	0
bin	1.1	0
bin	1.12	0
bin	1.14	0
bin	1.16	0
bin	1.18	0
bin	1.2	0
bin	1.22	0
bin	1.24	0
bin	1.26	0
statistic manet.host[1].wlan[0].radio bitErrorRate:histogram
field count 0
field mean nan
field stddev nan
field min nan
field max nan
field sum 0
field sqrsum 0
attr source bitErrorRate(packetSentToUpper)
attr title "Bit error rate, histogram"
bin	-inf	0
bin	0	0
bin	1	0
statistic manet.host[1].wlan[0].radio symbolErrorRate:histogram
field count 0
field mean nan
field stddev nan
field min nan
field max nan
field sum 0
field sqrsum 0
attr source symbolErrorRate(packetSentToUpper)
attr title "Symbol error rate, histogram"
bin	-inf	0
bin	0	0
bin	1	0
scalar manet.host[1].wlan[0].radio transmissionState:count 7876
attr interpolationmode sample-hold
attr source transmissionStateChanged
attr title "Radio transmission state, count"
scalar manet.host[1].wlan[0].radio receptionState:count 10519
attr interpolationmode sample-hold
attr source receptionStateChanged
attr title "Radio reception state, count"
scalar manet.host[1].wlan[0].radio radioMode:count 3941
attr interpolationmode sample-hold
attr source radioModeChanged
attr title "Radio mode, count"
statistic manet.host[1].wlan[0].radio radioChannel:histogram
field count 1
field mean 8
field stddev nan
field min 8
field max 8
field sum 8
field sqrsum 64
attr interpolationmode sample-hold
attr source radioChannelChanged
attr title "Radio channel, histogram"
bin	-inf	0
bin	7	0
bin	8	1
bin	9	0
scalar manet.host[1].ipv4.ip packetDropAddressResolutionFailed:count 35
attr interpolationmode none
attr source packetDropReasonIsAddressResolutionFailed(packetDropped)
attr title "packet drop: address resolution failed, count"
scalar manet.host[1].ipv4.ip packetDropAddressResolutionFailed:sum(packetBytes) 1960
attr interpolationmode none
attr source packetDropReasonIsAddressResolutionFailed(packetDropped)
attr title "packet drop: address resolution failed, sum(packetBytes)"
scalar manet.host[1].ipv4.ip packetDropHopLimitReached:count 0
attr interpolationmode none
attr source packetDropReasonIsHopLimitReached(packetDropped)
attr title "packet drop: hop limit reached, count"
scalar manet.host[1].ipv4.ip packetDropHopLimitReached:sum(packetBytes) 0
attr interpolationmode none
attr source packetDropReasonIsHopLimitReached(packetDropped)
attr title "packet drop: hop limit reached, sum(packetBytes)"
scalar manet.host[1].ipv4.ip packetDropForwardingDisabled:count 0
attr interpolationmode none
attr source packetDropReasonIsForwardingDisabled(packetDropped)
attr title "packet drop: forwarding disabled, count"
scalar manet.host[1].ipv4.ip packetDropForwardingDisabled:sum(packetBytes) 0
attr interpolationmode none
attr source packetDropReasonIsForwardingDisabled(packetDropped)
attr title "packet drop: forwarding disabled, sum(packetBytes)"
scalar manet.host[1].ipv4.ip packetDropNoInterfaceFound:count 0
attr interpolationmode none
attr source packetDropReasonIsNoInterfaceFound(packetDropped)
attr title "packet drop: no interface found, count"
scalar manet.host[1].ipv4.ip packetDropNoInterfaceFound:sum(packetBytes) 0
attr interpolationmode none
attr source packetDropReasonIsNoInterfaceFound(packetDropped)
attr title "packet drop: no interface found, sum(packetBytes)"
scalar manet.host[1].ipv4.ip packetDropNoRouteFound:count 0
attr interpolationmode none
attr source packetDropReasonIsNoRouteFound(packetDropped)
attr title "packet drop: no route found, count"
scalar manet.host[1].ipv4.ip packetDropNoRouteFound:sum(packetBytes) 0
attr interpolationmode none
attr source packetDropReasonIsNoRouteFound(packetDropped)
attr title "packet drop: no route found, sum(packetBytes)"
scalar manet.host[1].ipv4.ip packetDropUndefined:count 0
attr interpolationmode none
attr source packetDropReasonIsUndefined(packetDropped)
attr title "packet drop: undefined, count"
scalar manet.host[1].ipv4.ip packetDropUndefined:sum(packetBytes) 0
attr interpolationmode none
attr source packetDropReasonIsUndefined(packetDropped)
attr title "packet drop: undefined, sum(packetBytes)"
scalar manet.host[1].ipv4.arp arpReplySent:count 0
attr source arpReplySent
attr title "ARP replies sent, count"
scalar manet.host[1].ipv4.arp arpReplySent:sum(packetBytes) 0
attr source arpReplySent
attr title "ARP replies sent, sum(packetBytes)"
scalar manet.host[1].ipv4.arp arpRequestSent:count 21
attr source arpRequestSent
attr title "ARP request sent, count"
scalar manet.host[1].ipv4.arp arpRequestSent:sum(packetBytes) 588
attr source arpRequestSent
attr title "ARP request sent, sum(packetBytes)"
scalar manet.host[1].ipv4.arp arpResolutionFailed:count 4
attr title "ARP failed resolutions, count"
scalar manet.host[1].ipv4.arp arpResolutionCompleted:count 9
attr title "ARP completed resolutions, count"
scalar manet.host[1].ipv4.arp arpResolutionInitiated:count 10
attr title "ARP initiated resolutions, count"
scalar manet.host[1].udp packetReceived:count 32
attr interpolationmode none
attr source packetReceived
attr title "packets received, count"
scalar manet.host[1].udp packetReceived:sum(packetBytes) 320256
attr interpolationmode none
attr source packetReceived
attr title "packets received, sum(packetBytes)"
scalar manet.host[1].udp packetSent:count 0
attr interpolationmode none
attr source packetSent
attr title "packets sent, count"
scalar manet.host[1].udp packetSent:sum(packetBytes) 0
attr interpolationmode none
attr source packetSent
attr title "packets sent, sum(packetBytes)"
scalar manet.host[1].udp passedUpPk:count 32
attr interpolationmode none
attr source packetSentToUpper
attr title "packets passed up, count"
scalar manet.host[1].udp droppedPkWrongPort:count 0
attr interpolationmode none
attr source packetDropReasonIsNoPortFound(packetDropped)
attr title "packets dropped (wrong port), count"
scalar manet.host[1].udp droppedPkBadChecksum:count 0
attr interpolationmode none
attr source packetDropReasonIsIncorrectlyReceived(packetDropped)
attr title "packets dropped (checksum error), count"
scalar manet.host[1].app[0] packetReceived:count 32
attr interpolationmode none
attr source packetReceived
attr title "packets received, count"
scalar manet.host[1].app[0] packetReceived:sum(packetBytes) 320000
attr interpolationmode none
attr source packetReceived
attr title "packets received, sum(packetBytes)"
statistic manet.host[1].app[0] endToEndDelay:histogram
field count 32
field mean 2.1491046881187
field stddev 3.7690345793991
field min 0.039346400587
field max 13.679891527849
field sum 68.771350019797
field sqrsum 588.17110221768
attr interpolationmode none
attr source dataAge(packetReceived)
attr title "end-to-end delay, histogram"
attr unit s
bin	-inf	0
bin	0	18
bin	0.2	0
bin	0.4	1
bin	0.6	1
bin	0.8	0
bin	1	1
bin	1.2	0
bin	1.4	1
bin	1.6	0
bin	1.8	1
bin	2	0
bin	2.2	2
bin	2.4	0
bin	2.6	1
bin	2.8	1
bin	3	0
bin	3.2	0
bin	3.4	0
bin	3.6	0
bin	3.8	0
bin	4	0
bin	4.2	0
bin	4.4	0
bin	4.6	0
bin	4.8	0
bin	5	0
bin	5.2	0
bin	5.4	0
bin	5.6	0
bin	5.8	0
bin	6	0
bin	6.2	0
bin	6.4	0
bin	6.6	0
bin	6.8	0
bin	7	0
bin	7.2	0
bin	7.4	0
bin	7.6	1
bin	7.8	0
bin	8	0
bin	8.2	0
bin	8.4	0
bin	8.6	1
bin	8.8	0
bin	9	0
bin	9.2	1
bin	9.4	0
bin	9.6	0
bin	9.8	0
bin	10	0
bin	10.2	0
bin	10.4	0
bin	10.6	0
bin	10.8	0
bin	11	0
bin	11.2	0
bin	11.4	0
bin	11.6	0
bin	11.8	0
bin	12	1
bin	12.2	0
bin	12.4	0
bin	12.6	0
bin	12.8	0
bin	13	0
bin	13.2	0
bin	13.4	0
bin	13.6	1
bin	13.8	0
bin	14	0
bin	14.2	0
bin	14.4	0
bin	14.6	0
bin	14.8	0
bin	15	0
bin	15.2	0
bin	15.4	0
bin	15.6	0
bin	15.8	0
bin	16	0
bin	16.2	0
bin	16.4	0
bin	16.6	0
bin	16.8	0
bin	17	0
bin	17.2	0
scalar manet.host[2].energyStorage residualEnergyCapacity:last 4.4270068114006
attr interpolationmode linear
attr source residualEnergyCapacityChanged
attr title "Residual energy capacity, last"
scalar manet.host[2].lo[0].lo rcvdPkFromHl:count 0
attr interpolationmode none
attr source packetReceivedFromUpper
attr title "packets received from higher layer, count"
scalar manet.host[2].lo[0].lo rcvdPkFromHl:sum(packetBytes) 0
attr interpolationmode none
attr source packetReceivedFromUpper
attr title "packets received from higher layer, sum(packetBytes)"
scalar manet.host[2].lo[0].lo passedUpPk:count 0
attr interpolationmode none
attr source packetSentToUpper
attr title "packets passed to higher layer, count"
scalar manet.host[2].lo[0].lo passedUpPk:sum(packetBytes) 0
attr interpolationmode none
attr source packetSentToUpper
attr title "packets passed to higher layer, sum(packetBytes)"
scalar manet.host[2].wlan[0].mac.dcf.channelAccess.pendingQueue packetPopped:count 487
attr interpolationmode none
attr title "packet popped, count"
scalar manet.host[2].wlan[0].mac.dcf.channelAccess.pendingQueue packetPopped:sum(packetBytes) 296284
attr interpolationmode none
attr title "packet popped, sum(packetBytes)"
statistic manet.host[2].wlan[0].mac.dcf.channelAccess.pendingQueue queueingTime:histogram
field count 487
field mean 0.0073669685050904
field stddev 0.025924204840639
field min 0
field max 0.217251063086
field sum 3.587713661979
field sqrsum 0.35305387031012
attr interpolationmode none
attr source queueingTime(packetPopped)
attr title "queueing times, histogram"
attr unit s
bin	-inf	0
bin	0	383
bin	0.003	13
bin	0.006	18
bin	0.009	9
bin	0.012	8
bin	0.015	4
bin	0.018	12
bin	0.021	9
bin	0.024	3
bin	0.027	3
bin	0.03	1
bin	0.033	0
bin	0.036	0
bin	0.039	0
bin	0.042	3
bin	0.045	1
bin	0.048	1
bin	0.051	0
bin	0.054	1
bin	0.057	1
bin	0.06	4
bin	0.063	1
bin	0.066	1
bin	0.069	0
bin	0.072	0
bin	0.075	0
bin	0.078	0
bin	0.081	1
bin	0.084	0
bin	0.087	0
bin	0.09	0
bin	0.093	0
bin	0.096	0
bin	0.099	0
bin	0.102	0
bin	0.105	0
bin	0.108	0
bin	0.111	0
bin	0.114	0
bin	0.117	0
bin	0.12	0
bin	0.123	0
bin	0.126	1
bin	0.129	1
bin	0.132	0
bin	0.135	1
bin	0.138	0
bin	0.141	0
bin	0.144	2
bin	0.147	0
bin	0.15	0
bin	0.153	0
bin	0.156	0
bin	0.159	1
bin	0.162	0
bin	0.165	0
bin	0.168	0
bin	0.171	0
bin	0.174	0
bin	0.177	0
bin	0.18	0
bin	0.183	0
bin	0.186	1
bin	0.189	0
bin	0.192	0
bin	0.195	0
bin	0.198	1
bin	0.201	0
bin	0.204	0
bin	0.207	0
bin	0.21	1
bin	0.213	0
bin	0.216	1
bin	0.219	0
scalar manet.host[2].wlan[0].mac.dcf.channelAccess.pendingQueue queueLength:max 15
attr interpolationmode sample-hold
attr source "count(packetPushed) - count(packetPopped) - count(packetRemoved) - count(packetDropped)"
attr title "queue length, max"
scalar manet.host[2].wlan[0].mac.dcf.channelAccess.pendingQueue queueLength:timeavg 0.067459144812608
attr interpolationmode sample-hold
attr source "count(packetPushed) - count(packetPopped) - count(packetRemoved) - count(packetDropped)"
attr title "queue length, timeavg"
scalar manet.host[2].wlan[0].mac.dcf.channelAccess.pendingQueue packetPushed:count 487
attr interpolationmode none
attr title "packet pushed, count"
scalar manet.host[2].wlan[0].mac.dcf.channelAccess.pendingQueue packetPushed:sum(packetBytes) 296284
attr interpolationmode none
attr title "packet pushed, sum(packetBytes)"
scalar manet.host[2].wlan[0].mac.dcf.channelAccess.pendingQueue packetDropQueueOverflow:count 0
attr interpolationmode none
attr source packetDropReasonIsQueueOverflow(packetDropped)
attr title "packet drops: queue overflow, count"
scalar manet.host[2].wlan[0].mac.dcf.channelAccess.pendingQueue packetDropQueueOverflow:sum(packetBytes) 0
attr interpolationmode none
attr source packetDropReasonIsQueueOverflow(packetDropped)
attr title "packet drops: queue overflow, sum(packetBytes)"
scalar manet.host[2].wlan[0].mac.dcf.channelAccess.pendingQueue packetRemoved:count 0
attr interpolationmode none
attr title "packets removed, count"
scalar manet.host[2].wlan[0].mac.dcf.channelAccess.pendingQueue packetRemoved:sum(packetBytes) 0
attr interpolationmode none
attr title "packets removed, sum(packetBytes)"
statistic manet.host[2].wlan[0].mac.dcf.channelAccess.inProgressFrames queueingTime:histogram
field count 586
field mean 0.0038259589654369
field stddev 0.0083736112530295
field min 3.8e-005
field max 0.102568216165
field sum 2.242011953746
field sqrsum 0.049596504503916
attr interpolationmode none
attr source queueingTime(packetDequeued)
attr title "queueing times, histogram"
bin	-inf	0
bin	0	353
bin	0.0012	49
bin	0.0024	31
bin	0.0036	24
bin	0.0048	15
bin	0.006	12
bin	0.0072	11
bin	0.0084	11
bin	0.0096	7
bin	0.0108	13
bin	0.012	11
bin	0.0132	8
bin	0.0144	8
bin	0.0156	8
bin	0.0168	3
bin	0.018	4
bin	0.0192	0
bin	0.0204	0
bin	0.0216	2
bin	0.0228	1
bin	0.024	2
bin	0.0252	0
bin	0.0264	0
bin	0.0276	1
bin	0.0288	0
bin	0.03	1
bin	0.0312	1
bin	0.0324	3
bin	0.0336	0
bin	0.0348	0
bin	0.036	0
bin	0.0372	0
bin	0.0384	0
bin	0.0396	0
bin	0.0408	0
bin	0.042	0
bin	0.0432	1
bin	0.0444	0
bin	0.0456	0
bin	0.0468	0
bin	0.048	2
bin	0.0492	0
bin	0.0504	1
bin	0.0516	1
bin	0.0528	0
bin	0.054	0
bin	0.0552	1
bin	0.0564	0
bin	0.0576	0
bin	0.0588	0
bin	0.06	0
bin	0.0612	0
bin	0.0624	0
bin	0.0636	0
bin	0.0648	0
bin	0.066	0
bin	0.0672	0
bin	0.0684	0
bin	0.0696	0
bin	0.0708	0
bin	0.072	0
bin	0.0732	0
bin	0.0744	0
bin	0.0756	0
bin	0.0768	0
bin	0.078	0
bin	0.0792	0
bin	0.0804	0
bin	0.0816	0
bin	0.0828	0
bin	0.084	0
bin	0.0852	0
bin	0.0864	0
bin	0.0876	0
bin	0.0888	0
bin	0.09	0
bin	0.0912	0
bin	0.0924	0
bin	0.0936	0
bin	0.0948	0
bin	0.096	0
bin	0.0972	0
bin	0.0984	0
bin	0.0996	0
bin	0.1008	0
bin	0.102	1
bin	0.1032	0
scalar manet.host[2].wlan[0].mac.dcf.channelAccess.inProgressFrames queueLength:max 3
attr interpolationmode sample-hold
attr source "count(packetEnqueued) - count(packetDequeued)"
attr title "queue length, max"
scalar manet.host[2].wlan[0].mac.dcf.channelAccess.inProgressFrames queueLength:timeavg 0.042156153837517
attr interpolationmode sample-hold
attr source "count(packetEnqueued) - count(packetDequeued)"
attr title "queue length, timeavg"
scalar manet.host[2].wlan[0].mac.dcf.channelAccess.contention stateChanged:count 35054
attr interpolationmode none
attr title "contention state changed, count"
scalar manet.host[2].wlan[0].mac.dcf.channelAccess.contention channelAccessGranted:count 1219
attr title "channel access granted, count"
scalar manet.host[2].wlan[0].mac.dcf.channelAccess channelOwnershipChanged:count 2438
attr interpolationmode sample-hold
attr title "channel ownership, count"
scalar manet.host[2].wlan[0].mac.dcf.originatorMacDataService packetAggregated:count 0
attr title "packets aggregated, count"
scalar manet.host[2].wlan[0].mac.dcf.originatorMacDataService packetFragmented:count 99
attr title "packets fragmented, count"
scalar manet.host[2].wlan[0].mac.dcf.recipientMacDataService packetDropDuplicateDetected:count 270
attr interpolationmode none
attr source packetDropReasonIsDuplicateDetected(packetDropped)
attr title "packet drops: duplicate detected, count"
scalar manet.host[2].wlan[0].mac.dcf.recipientMacDataService packetDropDuplicateDetected:sum(packetBytes) 238706
attr interpolationmode none
attr source packetDropReasonIsDuplicateDetected(packetDropped)
attr title "packet drops: duplicate detected, sum(packetBytes)"
scalar manet.host[2].wlan[0].mac.dcf.recipientMacDataService packetDeaggregated:count 0
attr title "packets deaggregated, count"
scalar manet.host[2].wlan[0].mac.dcf.recipientMacDataService packetDefragmented:count 865
attr title "packets defragmented, count"
scalar manet.host[2].wlan[0].mac.dcf.recoveryProcedure retryLimitReached:count 39
attr title "retry limit reached, count"
scalar manet.host[2].wlan[0].mac.dcf packetReceivedFromPeer:count 1495
attr interpolationmode none
attr title "packets received, count"
scalar manet.host[2].wlan[0].mac.dcf packetReceivedFromPeer:sum(packetBytes) 593624
attr interpolationmode none
attr title "packets received, sum(packetBytes)"
scalar manet.host[2].wlan[0].mac.dcf packetReceivedFromPeerUnicast:count 867
attr interpolationmode none
attr source ieee80211Unicast(packetReceivedFromPeer)
attr title "packets received: unicast, count"
scalar manet.host[2].wlan[0].mac.dcf packetReceivedFromPeerUnicast:sum(packetBytes) 520658
attr interpolationmode none
attr source ieee80211Unicast(packetReceivedFromPeer)
attr title "packets received: unicast, sum(packetBytes)"
scalar manet.host[2].wlan[0].mac.dcf packetReceivedFromPeerMulticast:count 628
attr interpolationmode none
attr source ieee80211Multicast(packetReceivedFromPeer)
attr title "packets received: multicast, count"
scalar manet.host[2].wlan[0].mac.dcf packetReceivedFromPeerMulticast:sum(packetBytes) 72966
attr interpolationmode none
attr source ieee80211Multicast(packetReceivedFromPeer)
attr title "packets received: multicast, sum(packetBytes)"
scalar manet.host[2].wlan[0].mac.dcf packetReceivedFromPeerBroadcast:count 20
attr interpolationmode none
attr source ieee80211Broadcast(packetReceivedFromPeer)
attr title "packets received: broadcast, count"
scalar manet.host[2].wlan[0].mac.dcf packetReceivedFromPeerBroadcast:sum(packetBytes) 1280
attr interpolationmode none
attr source ieee80211Broadcast(packetReceivedFromPeer)
attr title "packets received: broadcast, sum(packetBytes)"
scalar manet.host[2].wlan[0].mac.dcf packetReceivedFromPeerWithRetry:count 475
attr interpolationmode none
attr source ieee80211Retry(packetReceivedFromPeer)
attr title "packets received: with retry, count"
scalar manet.host[2].wlan[0].mac.dcf packetReceivedFromPeerWithRetry:sum(packetBytes) 409868
attr interpolationmode none
attr source ieee80211Retry(packetReceivedFromPeer)
attr title "packets received: with retry, sum(packetBytes)"
scalar manet.host[2].wlan[0].mac.dcf packetReceivedFromPeerWithoutRetry:count 1020
attr interpolationmode none
attr source ieee80211NotRetry(packetReceivedFromPeer)
attr title "packets received: without retry, count"
scalar manet.host[2].wlan[0].mac.dcf packetReceivedFromPeerWithoutRetry:sum(packetBytes) 183756
attr interpolationmode none
attr source ieee80211NotRetry(packetReceivedFromPeer)
attr title "packets received: without retry, sum(packetBytes)"
scalar manet.host[2].wlan[0].mac.dcf packetSentToPeer:count 1918
attr interpolationmode none
attr title "packets sent, count"
scalar manet.host[2].wlan[0].mac.dcf packetSentToPeer:sum(packetBytes) 956358
attr interpolationmode none
attr title "packets sent, sum(packetBytes)"
scalar manet.host[2].wlan[0].mac.dcf packetSentToPeerUnicast:count 1623
attr interpolationmode none
attr source ieee80211Unicast(packetSentToPeer)
attr title "packets sent: unicast, count"
scalar manet.host[2].wlan[0].mac.dcf packetSentToPeerUnicast:sum(packetBytes) 921500
attr interpolationmode none
attr source ieee80211Unicast(packetSentToPeer)
attr title "packets sent: unicast, sum(packetBytes)"
scalar manet.host[2].wlan[0].mac.dcf packetSentToPeerMulticast:count 295
attr interpolationmode none
attr source ieee80211Multicast(packetSentToPeer)
attr title "packets sent: multicast, count"
scalar manet.host[2].wlan[0].mac.dcf packetSentToPeerMulticast:sum(packetBytes) 34858
attr interpolationmode none
attr source ieee80211Multicast(packetSentToPeer)
attr title "packets sent: multicast, sum(packetBytes)"
scalar manet.host[2].wlan[0].mac.dcf packetSentToPeerBroadcast:count 4
attr interpolationmode none
attr source ieee80211Broadcast(packetSentToPeer)
attr title "packets sent: broadcast , count"
scalar manet.host[2].wlan[0].mac.dcf packetSentToPeerBroadcast:sum(packetBytes) 256
attr interpolationmode none
attr source ieee80211Broadcast(packetSentToPeer)
attr title "packets sent: broadcast , sum(packetBytes)"
scalar manet.host[2].wlan[0].mac.dcf packetSentToPeerWithRetry:count 717
attr interpolationmode none
attr source ieee80211Retry(packetSentToPeer)
attr title "packets sent: with retry, count"
scalar manet.host[2].wlan[0].mac.dcf packetSentToPeerWithRetry:sum(packetBytes) 648692
attr interpolationmode none
attr source ieee80211Retry(packetSentToPeer)
attr title "packets sent: with retry, sum(packetBytes)"
scalar manet.host[2].wlan[0].mac.dcf packetSentToPeerWithoutRetry:count 1201
attr interpolationmode none
attr source ieee80211NotRetry(packetSentToPeer)
attr title "packets sent: without retry, count"
scalar manet.host[2].wlan[0].mac.dcf packetSentToPeerWithoutRetry:sum(packetBytes) 307666
attr interpolationmode none
attr source ieee80211NotRetry(packetSentToPeer)
attr title "packets sent: without retry, sum(packetBytes)"
scalar manet.host[2].wlan[0].mac.dcf packetDrop:count 3053
attr interpolationmode none
attr source packetDropped
attr title "packet drops, count"
scalar manet.host[2].wlan[0].mac.dcf packetDrop:sum(packetBytes) 1955916
attr interpolationmode none
attr source packetDropped
attr title "packet drops, sum(packetBytes)"
scalar manet.host[2].wlan[0].mac.dcf packetDropNotAddressedToUs:count 2744
attr interpolationmode none
attr source packetDropReasonIsNotAddressedToUs(packetDropped)
attr title "packet drops: not addressed to us, count"
scalar manet.host[2].wlan[0].mac.dcf packetDropNotAddressedToUs:sum(packetBytes) 1684538
attr interpolationmode none
attr source packetDropReasonIsNotAddressedToUs(packetDropped)
attr title "packet drops: not addressed to us, sum(packetBytes)"
scalar manet.host[2].wlan[0].mac.dcf packetDropQueueOverflow:count 0
attr interpolationmode none
attr source packetDropReasonIsQueueOverflow(packetDropped)
attr title "packet drops: queue overflow, count"
scalar manet.host[2].wlan[0].mac.dcf packetDropQueueOverflow:sum(packetBytes) 0
attr interpolationmode none
attr source packetDropReasonIsQueueOverflow(packetDropped)
attr title "packet drops: queue overflow, sum(packetBytes)"
scalar manet.host[2].wlan[0].mac.dcf packetDropRetryLimitReached:count 39
attr interpolationmode none
attr source packetDropReasonIsRetryLimitReached(packetDropped)
attr title "packet drops: retry limit reached, count"
scalar manet.host[2].wlan[0].mac.dcf packetDropRetryLimitReached:sum(packetBytes) 32672
attr interpolationmode none
attr source packetDropReasonIsRetryLimitReached(packetDropped)
attr title "packet drops: retry limit reached, sum(packetBytes)"
scalar manet.host[2].wlan[0].mac.dcf linkBroken:count 39
attr interpolationmode none
attr title "link breaks, count"
scalar manet.host[2].wlan[0].mac.dcf frameSequenceFinished:count 1219
attr title "finished frame sequences, count"
statistic manet.host[2].wlan[0].mac.dcf frameSequenceDuration:histogram
field count 1219
field mean 0.00018492949467104
field stddev 0.00013143707586242
field min 3.8e-005
field max 0.000514569784
field sum 0.225429054004
field sqrsum 6.2730289623049e-005
attr source frameSequenceDuration(frameSequenceFinished)
attr title "frame sequence durations, histogram"
bin	-inf	0
bin	3.74e-005	275
bin	4.7e-005	20
bin	5.66e-005	0
bin	6.62e-005	0
bin	7.58e-005	3
bin	8.54e-005	257
bin	9.5e-005	1
[...]
attr interpolationmode none
attr source packetDropped
attr title "packet drops, sum(packetBytes)"
scalar manet.host[6].wlan[0].mac.dcf packetDropNotAddressedToUs:count 2839
attr interpolationmode none
attr source packetDropReasonIsNotAddressedToUs(packetDropped)
attr title "packet drops: not addressed to us, count"
scalar manet.host[6].wlan[0].mac.dcf packetDropNotAddressedToUs:sum(packetBytes) 1181270
attr interpolationmode none
attr source packetDropReasonIsNotAddressedToUs(packetDropped)
attr title "packet drops: not addressed to us, sum(packetBytes)"
scalar manet.host[6].wlan[0].mac.dcf packetDropQueueOverflow:count 0
attr interpolationmode none
attr source packetDropReasonIsQueueOverflow(packetDropped)
attr title "packet drops: queue overflow, count"
scalar manet.host[6].wlan[0].mac.dcf packetDropQueueOverflow:sum(packetBytes) 0
attr interpolationmode none
attr source packetDropReasonIsQueueOverflow(packetDropped)
attr title "packet drops: queue overflow, sum(packetBytes)"
scalar manet.host[6].wlan[0].mac.dcf packetDropRetryLimitReached:count 3
attr interpolationmode none
attr source packetDropReasonIsRetryLimitReached(packetDropped)
attr title "packet drops: retry limit reached, count"
scalar manet.host[6].wlan[0].mac.dcf packetDropRetryLimitReached:sum(packetBytes) 2462
attr interpolationmode none
attr source packetDropReasonIsRetryLimitReached(packetDropped)
attr title "packet drops: retry limit reached, sum(packetBytes)"
scalar manet.host[6].wlan[0].mac.dcf linkBroken:count 3
attr interpolationmode none
attr title "link breaks, count"
scalar manet.host[6].wlan[0].mac.dcf frameSequenceFinished:count 265
attr title "finished frame sequences, count"
statistic manet.host[6].wlan[0].mac.dcf frameSequenceDuration:histogram
field count 265
field mean 0.00010003653536226
field stddev 0.00010750411437157
field min 3.8e-005
field max 0.000510946673
field sum 0.026509681871
field sqrsum 5.7030202641299e-006
attr source frameSequenceDuration(frameSequenceFinished)
attr title "frame sequence durations, histogram"
bin	-inf	0
bin	3.74e-005	22
bin	4.54e-005	152
bin	5.34e-005	0
bin	6.14e-005	0
bin	6.94e-005	0
bin	7.74e-005	4
bin	8.54e-005	30
bin	9.34e-005	4
bin	0.0001014	1
bin	0.0001094	0
bin	0.0001174	0
bin	0.0001254	0
bin	0.0001334	0
bin	0.0001414	0
bin	0.0001494	0
bin	0.0001574	0
bin	0.0001654	0
bin	0.0001734	0
bin	0.0001814	0
bin	0.0001894	0
bin	0.0001974	19
bin	0.0002054	0
bin	0.0002134	6
bin	0.0002214	0
bin	0.0002294	0
bin	0.0002374	0
bin	0.0002454	0
bin	0.0002534	0
bin	0.0002614	0
bin	0.0002694	0
bin	0.0002774	0
bin	0.0002854	0
bin	0.0002934	17
bin	0.0003014	0
bin	0.0003094	0
bin	0.0003174	0
bin	0.0003254	0
bin	0.0003334	0
bin	0.0003414	0
bin	0.0003494	0
bin	0.0003574	0
bin	0.0003654	0
bin	0.0003734	0
bin	0.0003814	0
bin	0.0003894	0
bin	0.0003974	0
bin	0.0004054	0
bin	0.0004134	1
bin	0.0004214	0
bin	0.0004294	0
bin	0.0004374	0
bin	0.0004454	0
bin	0.0004534	0
bin	0.0004614	0
bin	0.0004694	0
bin	0.0004774	0
bin	0.0004854	0
bin	0.0004934	0
bin	0.0005014	6
bin	0.0005094	3
bin	0.0005174	0
statistic manet.host[6].wlan[0].mac.dcf frameSequenceNumPackets:histogram
field count 265
field mean 1.411320754717
field stddev 0.66902812182098
field min 1
field max 4
field sum 374
field sqrsum 646
attr source frameSequenceNumPackets(frameSequenceFinished)
attr title "frame sequences: number of packets, histogram"
bin	-inf	0
bin	0	0
bin	1	174
bin	2	82
bin	3	0
bin	4	9
bin	5	0
scalar manet.host[6].wlan[0].mac packetReceivedFromLower:count 3373
attr interpolationmode none
attr title "packets received from lower layer, count"
scalar manet.host[6].wlan[0].mac packetReceivedFromLower:sum(packetBytes) 1288552
attr interpolationmode none
attr title "packets received from lower layer, sum(packetBytes)"
scalar manet.host[6].wlan[0].mac packetSentToLower:count 323
attr interpolationmode none
attr title "packets sent to lower layer, count"
scalar manet.host[6].wlan[0].mac packetSentToLower:sum(packetBytes) 94602
attr interpolationmode none
attr title "packets sent to lower layer, sum(packetBytes)"
scalar manet.host[6].wlan[0].mac packetReceivedFromUpper:count 200
attr interpolationmode none
attr title "packets received from upper layer, count"
scalar manet.host[6].wlan[0].mac packetReceivedFromUpper:sum(packetBytes) 42308
attr interpolationmode none
attr title "packets received from upper layer, sum(packetBytes)"
scalar manet.host[6].wlan[0].mac packetSentToUpper:count 413
attr interpolationmode none
attr title "packets sent to upper layer, count"
scalar manet.host[6].wlan[0].mac packetSentToUpper:sum(packetBytes) 59686
attr interpolationmode none
attr title "packets sent to upper layer, sum(packetBytes)"
scalar manet.host[6].wlan[0].mac packetDrop:count 2918
attr interpolationmode none
attr source packetDropped
attr title "packet drops, count"
scalar manet.host[6].wlan[0].mac packetDrop:sum(packetBytes) 1217508
attr interpolationmode none
attr source packetDropped
attr title "packet drops, sum(packetBytes)"
scalar manet.host[6].wlan[0].mac packetDropIncorrectlyReceived:count 63
attr interpolationmode none
attr source packetDropReasonIsIncorrectlyReceived(packetDropped)
attr title "packet drops: incorrectly received, count"
scalar manet.host[6].wlan[0].mac packetDropIncorrectlyReceived:sum(packetBytes) 26040
attr interpolationmode none
attr source packetDropReasonIsIncorrectlyReceived(packetDropped)
attr title "packet drops: incorrectly received, sum(packetBytes)"
scalar manet.host[6].wlan[0].mac packetDropNotAddressedToUs:count 2839
attr interpolationmode none
attr source packetDropReasonIsNotAddressedToUs(packetDropped)
attr title "packet drops: not addressed to us, count"
scalar manet.host[6].wlan[0].mac packetDropNotAddressedToUs:sum(packetBytes) 1181270
attr interpolationmode none
attr source packetDropReasonIsNotAddressedToUs(packetDropped)
attr title "packet drops: not addressed to us, sum(packetBytes)"
scalar manet.host[6].wlan[0].mac packetDropQueueOverflow:count 0
attr interpolationmode none
attr source packetDropReasonIsQueueOverflow(packetDropped)
attr title "packet drops: queue overflow, count"
scalar manet.host[6].wlan[0].mac packetDropQueueOverflow:sum(packetBytes) 0
attr interpolationmode none
attr source packetDropReasonIsQueueOverflow(packetDropped)
attr title "packet drops: queue overflow, sum(packetBytes)"
scalar manet.host[6].wlan[0].mac packetDropRetryLimitReached:count 3
attr interpolationmode none
attr source packetDropReasonIsRetryLimitReached(packetDropped)
attr title "packet drops: retry limit reached, count"
scalar manet.host[6].wlan[0].mac packetDropRetryLimitReached:sum(packetBytes) 2462
attr interpolationmode none
attr source packetDropReasonIsRetryLimitReached(packetDropped)
attr title "packet drops: retry limit reached, sum(packetBytes)"
scalar manet.host[6].wlan[0].mac packetDropDuplicateDetected:count 13
attr interpolationmode none
attr source packetDropReasonIsDuplicateDetected(packetDropped)
attr title "packet drops: duplicate detected, count"
scalar manet.host[6].wlan[0].mac packetDropDuplicateDetected:sum(packetBytes) 7736
attr interpolationmode none
attr source packetDropReasonIsDuplicateDetected(packetDropped)
attr title "packet drops: duplicate detected, sum(packetBytes)"
scalar manet.host[6].wlan[0].mac packetDropOther:count 0
attr interpolationmode none
attr source packetDropReasonIsOther(packetDropped)
attr title "packet drops: other, count"
scalar manet.host[6].wlan[0].mac packetDropOther:sum(packetBytes) 0
attr interpolationmode none
attr source packetDropReasonIsOther(packetDropped)
attr title "packet drops: other, sum(packetBytes)"
scalar manet.host[6].wlan[0].mac linkBroken:count 3
attr interpolationmode none
attr title "link breaks, count"
statistic manet.host[6].wlan[0].radio minSnir:histogram
field count 3373
field mean 10159.60838149
field stddev 61921.410320442
field min 0.017002980511612
field max 2732377.2990645
field sum 34268359.070767
field sqrsum 13277281389112
attr source minimumSnir(packetSentToUpper)
attr title "Min SNIR, histogram"
bin	-inf	0
bin	0	3278
bin	60000	50
bin	120000	12
bin	180000	19
bin	240000	3
bin	300000	3
bin	360000	2
bin	420000	1
bin	480000	1
bin	540000	0
bin	600000	0
bin	660000	0
bin	720000	1
bin	780000	0
bin	840000	0
bin	900000	1
bin	960000	0
bin	1020000	0
bin	1080000	0
bin	1140000	1
bin	1200000	0
bin	1260000	0
bin	1320000	0
bin	1380000	0
bin	1440000	0
bin	1500000	0
bin	1560000	0
bin	1620000	0
bin	1680000	0
bin	1740000	0
bin	1800000	0
bin	1860000	0
bin	1920000	0
bin	1980000	0
bin	2040000	0
bin	2100000	0
bin	2160000	0
bin	2220000	0
bin	2280000	0
bin	2340000	0
bin	2400000	0
bin	2460000	0
bin	2520000	0
bin	2580000	0
bin	2640000	0
bin	2700000	1
bin	2760000	0
statistic manet.host[6].wlan[0].radio packetErrorRate:histogram
field count 3373
field mean 0.01868092233172
field stddev 0.13536681201278
field min 0
field max 1
field sum 63.010751024892
field sqrsum 62.966212981028
attr source packetErrorRate(packetSentToUpper)
attr title "Packet error rate, histogram"
bin	-inf	0
bin	0	3310
bin	0.02	0
bin	0.04	0
bin	0.06	0
bin	0.08	0
bin	0.1	0
bin	0.12	0
bin	0.14	0
bin	0.16	0
bin	0.18	0
bin	0.2	0
bin	0.22	0
bin	0.24	0
bin	0.26	0
bin	0.28	0
bin	0.3	0
bin	0.32	0
bin	0.34	0
bin	0.36	0
bin	0.38	0
bin	0.4	0
bin	0.42	0
bin	0.44	0
bin	0.46	0
bin	0.48	0
bin	0.5	0
bin	0.52	0
bin	0.54	0
bin	0.56	0
bin	0.58	0
bin	0.6	0
bin	0.62	0
bin	0.64	0
bin	0.66	0
bin	0.68	0
bin	0.7	0
bin	0.72	0
bin	0.74	0
bin	0.76	0
bin	0.78	0
bin	0.8	0
bin	0.82	0
bin	0.84	0
bin	0.86	0
bin	0.88	0
bin	0.9	0
bin	0.92	0
bin	0.94	0
bin	0.96	0
bin	0.98	1
bin	1	62
bin	1.02	0
bin	1.04	0
bin	1.06	0
bin	1.08	0
bin	1.1	0
bin	1.12	0
bin	1.14	0
bin	1.16	0
bin	1.18	0
bin	1.2	0
bin	1.22	0
bin	1.24	0
bin	1.26	0
statistic manet.host[6].wlan[0].radio bitErrorRate:histogram
field count 0
field mean nan
field stddev nan
field min nan
field max nan
field sum 0
field sqrsum 0
attr source bitErrorRate(packetSentToUpper)
attr title "Bit error rate, histogram"
bin	-inf	0
bin	0	0
bin	1	0
statistic manet.host[6].wlan[0].radio symbolErrorRate:histogram
field count 0
field mean nan
field stddev nan
field min nan
field max nan
field sum 0
field sqrsum 0
attr source symbolErrorRate(packetSentToUpper)
attr title "Symbol error rate, histogram"
bin	-inf	0
bin	0	0
bin	1	0
scalar manet.host[6].wlan[0].radio transmissionState:count 1292
attr interpolationmode sample-hold
attr source transmissionStateChanged
attr title "Radio transmission state, count"
scalar manet.host[6].wlan[0].radio receptionState:count 7434
attr interpolationmode sample-hold
attr source receptionStateChanged
attr title "Radio reception state, count"
scalar manet.host[6].wlan[0].radio radioMode:count 649
attr interpolationmode sample-hold
attr source radioModeChanged
attr title "Radio mode, count"
statistic manet.host[6].wlan[0].radio radioChannel:histogram
field count 1
field mean 8
field stddev nan
field min 8
field max 8
field sum 8
field sqrsum 64
attr interpolationmode sample-hold
attr source radioChannelChanged
attr title "Radio channel, histogram"
bin	-inf	0
bin	7	0
bin	8	1
bin	9	0
scalar manet.host[6].ipv4.ip packetDropAddressResolutionFailed:count 0
attr interpolationmode none
attr source packetDropReasonIsAddressResolutionFailed(packetDropped)
attr title "packet drop: address resolution failed, count"
scalar manet.host[6].ipv4.ip packetDropAddressResolutionFailed:sum(packetBytes) 0
attr interpolationmode none
attr source packetDropReasonIsAddressResolutionFailed(packetDropped)
attr title "packet drop: address resolution failed, sum(packetBytes)"
scalar manet.host[6].ipv4.ip packetDropHopLimitReached:count 0
attr interpolationmode none
attr source packetDropReasonIsHopLimitReached(packetDropped)
attr title "packet drop: hop limit reached, count"
scalar manet.host[6].ipv4.ip packetDropHopLimitReached:sum(packetBytes) 0
attr interpolationmode none
attr source packetDropReasonIsHopLimitReached(packetDropped)
attr title "packet drop: hop limit reached, sum(packetBytes)"
scalar manet.host[6].ipv4.ip packetDropForwardingDisabled:count 0
attr interpolationmode none
attr source packetDropReasonIsForwardingDisabled(packetDropped)
attr title "packet drop: forwarding disabled, count"
scalar manet.host[6].ipv4.ip packetDropForwardingDisabled:sum(packetBytes) 0
attr interpolationmode none
attr source packetDropReasonIsForwardingDisabled(packetDropped)
attr title "packet drop: forwarding disabled, sum(packetBytes)"
scalar manet.host[6].ipv4.ip packetDropNoInterfaceFound:count 0
attr interpolationmode none
attr source packetDropReasonIsNoInterfaceFound(packetDropped)
attr title "packet drop: no interface found, count"
scalar manet.host[6].ipv4.ip packetDropNoInterfaceFound:sum(packetBytes) 0
attr interpolationmode none
attr source packetDropReasonIsNoInterfaceFound(packetDropped)
attr title "packet drop: no interface found, sum(packetBytes)"
scalar manet.host[6].ipv4.ip packetDropNoRouteFound:count 0
attr interpolationmode none
attr source packetDropReasonIsNoRouteFound(packetDropped)
attr title "packet drop: no route found, count"
scalar manet.host[6].ipv4.ip packetDropNoRouteFound:sum(packetBytes) 0
attr interpolationmode none
attr source packetDropReasonIsNoRouteFound(packetDropped)
attr title "packet drop: no route found, sum(packetBytes)"
scalar manet.host[6].ipv4.ip packetDropUndefined:count 0
attr interpolationmode none
attr source packetDropReasonIsUndefined(packetDropped)
attr title "packet drop: undefined, count"
scalar manet.host[6].ipv4.ip packetDropUndefined:sum(packetBytes) 0
attr interpolationmode none
attr source packetDropReasonIsUndefined(packetDropped)
attr title "packet drop: undefined, sum(packetBytes)"
scalar manet.host[6].ipv4.arp arpReplySent:count 2
attr source arpReplySent
attr title "ARP replies sent, count"
scalar manet.host[6].ipv4.arp arpReplySent:sum(packetBytes) 56
attr source arpReplySent
attr title "ARP replies sent, sum(packetBytes)"
scalar manet.host[6].ipv4.arp arpRequestSent:count 1
attr source arpRequestSent
attr title "ARP request sent, count"
scalar manet.host[6].ipv4.arp arpRequestSent:sum(packetBytes) 28
attr source arpRequestSent
attr title "ARP request sent, sum(packetBytes)"
scalar manet.host[6].ipv4.arp arpResolutionFailed:count 0
attr title "ARP failed resolutions, count"
scalar manet.host[6].ipv4.arp arpResolutionCompleted:count 10
attr title "ARP completed resolutions, count"
scalar manet.host[6].ipv4.arp arpResolutionInitiated:count 1
attr title "ARP initiated resolutions, count"
scalar manet.host[6].udp packetReceived:count 0
attr interpolationmode none
attr source packetReceived
attr title "packets received, count"
scalar manet.host[6].udp packetReceived:sum(packetBytes) 0
attr interpolationmode none
attr source packetReceived
attr title "packets received, sum(packetBytes)"
scalar manet.host[6].udp packetSent:count 0
attr interpolationmode none
attr source packetSent
attr title "packets sent, count"
scalar manet.host[6].udp packetSent:sum(packetBytes) 0
attr interpolationmode none
attr source packetSent
attr title "packets sent, sum(packetBytes)"
scalar manet.host[6].udp passedUpPk:count 0
attr interpolationmode none
attr source packetSentToUpper
attr title "packets passed up, count"
scalar manet.host[6].udp droppedPkWrongPort:count 0
attr interpolationmode none
attr source packetDropReasonIsNoPortFound(packetDropped)
attr title "packets dropped (wrong port), count"
scalar manet.host[6].udp droppedPkBadChecksum:count 0
attr interpolationmode none
attr source packetDropReasonIsIncorrectlyReceived(packetDropped)
attr title "packets dropped (checksum error), count"
scalar manet.radioMedium.propagation "Arrival computation count" 71514
scalar manet.radioMedium.obstacleLoss "Obstacle loss intersection computation count" 643626
scalar manet.radioMedium.obstacleLoss "Obstacle loss intersection count" 5916
scalar manet.radioMedium "transmission count" 11919
scalar manet.radioMedium "signal send count" 71514
scalar manet.radioMedium "reception computation count" 71514
scalar manet.radioMedium "interference computation count" 222198
scalar manet.radioMedium "reception decision computation count" 31100
scalar manet.radioMedium "listening decision computation count" 120241
scalar manet.radioMedium "reception cache hit" 81.445561816993
attr unit %
scalar manet.radioMedium "interference cache hit" 66.666666666667
attr unit %
scalar manet.radioMedium "noise cache hit" 0
attr unit %
scalar manet.radioMedium "snir cache hit" 50
attr unit %
scalar manet.radioMedium "reception decision cache hit" 50
attr unit %
scalar manet.radioMedium "reception result cache hit" 0
attr unit %
scalar manet receptionPower:last 1.6364761611456e-012
attr source receptionMinSignalPower(radioMedium.signalArrivalStarted)
statistic manet endToEndDelay:histogram
field count 320
field mean 2.1491046881187
field stddev 3.7154859839072
field min 0.039346400587
field max 13.679891527849
field sum 687.71350019797
field sqrsum 5881.7110221769
attr interpolationmode none
attr source dataAge(packetReceived)
attr title "end-to-end delay, histogram"
attr unit s
bin	-inf	0
bin	0	180
bin	0.2	0
bin	0.4	10
bin	0.6	10
bin	0.8	0
bin	1	10
bin	1.2	0
bin	1.4	10
bin	1.6	0
bin	1.8	10
bin	2	0
bin	2.2	20
bin	2.4	0
bin	2.6	10
bin	2.8	10
bin	3	0
bin	3.2	0
bin	3.4	0
bin	3.6	0
bin	3.8	0
bin	4	0
bin	4.2	0
bin	4.4	0
bin	4.6	0
bin	4.8	0
bin	5	0
bin	5.2	0
bin	5.4	0
bin	5.6	0
bin	5.8	0
bin	6	0
bin	6.2	0
bin	6.4	0
bin	6.6	0
bin	6.8	0
bin	7	0
bin	7.2	0
bin	7.4	0
bin	7.6	10
bin	7.8	0
bin	8	0
bin	8.2	0
bin	8.4	0
bin	8.6	10
bin	8.8	0
bin	9	0
bin	9.2	10
bin	9.4	0
bin	9.6	0
bin	9.8	0
bin	10	0
bin	10.2	0
bin	10.4	0
bin	10.6	0
bin	10.8	0
bin	11	0
bin	11.2	0
bin	11.4	0
bin	11.6	0
bin	11.8	0
bin	12	10
bin	12.2	0
bin	12.4	0
bin	12.6	0
bin	12.8	0
bin	13	0
bin	13.2	0
bin	13.4	0
bin	13.6	10
bin	13.8	0
bin	14	0
bin	14.2	0
bin	14.4	0
bin	14.6	0
bin	14.8	0
bin	15	0
bin	15.2	0
bin	15.4	0
bin	15.6	0
bin	15.8	0
bin	16	0
bin	16.2	0
bin	16.4	0
bin	16.6	0
bin	16.8	0
bin	17	0
bin	17.2	0
statistic manet endToEndDelay:weightedHistogram
field count 320
field mean 2.1491046881187
field stddev 3.725998674316
field min 0.039346400587
field max 13.679891527849
field weights 5120000
field weightedSum 11003416.003168
field sqrSumWeights 229174542336
field weightedSqrSum 94107376.354829
attr interpolationmode none
attr source dataAge(packetReceived)
attr title "end-to-end delay, weightedHistogram"
attr unit s
bin	-inf	0
bin	0	2880000
bin	0.2	0
bin	0.4	160000
bin	0.6	160000
bin	0.8	0
bin	1	160000
bin	1.2	0
bin	1.4	160000
bin	1.6	0
bin	1.8	160000
bin	2	0
bin	2.2	320000
bin	2.4	0
bin	2.6	160000
bin	2.8	160000
bin	3	0
bin	3.2	0
bin	3.4	0
bin	3.6	0
bin	3.8	0
bin	4	0
bin	4.2	0
bin	4.4	0
bin	4.6	0
bin	4.8	0
bin	5	0
bin	5.2	0
bin	5.4	0
bin	5.6	0
bin	5.8	0
bin	6	0
bin	6.2	0
bin	6.4	0
bin	6.6	0
bin	6.8	0
bin	7	0
bin	7.2	0
bin	7.4	0
bin	7.6	160000
bin	7.8	0
bin	8	0
bin	8.2	0
bin	8.4	0
bin	8.6	160000
bin	8.8	0
bin	9	0
bin	9.2	160000
bin	9.4	0
bin	9.6	0
bin	9.8	0
bin	10	0
bin	10.2	0
bin	10.4	0
bin	10.6	0
bin	10.8	0
bin	11	0
bin	11.2	0
bin	11.4	0
bin	11.6	0
bin	11.8	0
bin	12	160000
bin	12.2	0
bin	12.4	0
bin	12.6	0
bin	12.8	0
bin	13	0
bin	13.2	0
bin	13.4	0
bin	13.6	160000
bin	13.8	0
bin	14	0
bin	14.2	0
bin	14.4	0
bin	14.6	0
bin	14.8	0
bin	15	0
bin	15.2	0
bin	15.4	0
bin	15.6	0
bin	15.8	0
bin	16	0
bin	16.2	0
bin	16.4	0
bin	16.6	0
bin	16.8	0
bin	17	0
bin	17.2	0

