file 41877053 1652956821                                        
version 2
run Dynamic-0-20220519-11:39:20-916
attr configname Dynamic
attr datetime 20220519-11:39:20
attr experiment "\"Dynamic\""
attr inifile omnetpp.ini
attr iterationvars "$rateControl=\"\""
attr iterationvarsf rateControl=-
attr measurement "\"DYMO-10K-Mobility-1000s\""
attr network manet
attr processid 916
attr repetition 0
attr replication "\"#0\""
attr resultdir results
attr runnumber 0
attr seedset 0
itervar rateControl "\"\""
param **.host[0].mobility.typename "\"TurtleMobility\""
param **.host[1].mobility.typename "\"AnsimMobility\""
param **.host[0].mobility.turtleScript "xmldoc(\"move0.xml\")"
param **.host[1].mobility.ansimTrace "xmldoc(\"ansimtrace.xml\")"
param **.host[1].mobility.nodeId 1
param **.host[2..6].mobility.typename "\"StationaryMobility\""
param **.host[2..6].mobility.initFromDisplayString false
param **.host[2].mobility.initialX 900m
param **.host[2].mobility.initialY 500m
param **.host[3].mobility.initialX 1400m
param **.host[3].mobility.initialY 490m
param **.host[4].mobility.initialX 1700m
param **.host[4].mobility.initialY 350m
param **.host[5].mobility.initialX 1320m
param **.host[5].mobility.initialY 750m
param **.host[6].mobility.initialX 930m
param **.host[6].mobility.initialY 650m
param *.host[*].hasStatus true
param **.host[0].numApps 1
param **.host[1].numApps 1
param **.host[0].app[0].typename "\"UdpBasicApp\""
param **.host[0].app[0].destPort 5001
param **.host[0].app[0].messageLength 10000B
param **.host[0].app[0].destAddresses "moduleListByPath(\"**.host[1]\")"
param **.host[1].app[0].localPort 5001
param **.host[1].app[0].typename "\"UdpSink\""
param **.app[*].sendInterval 0.5s+uniform(-0.02s,0.02s)
param *.host*.wlan[0].mac.headerLength 23B
param **.host[*].wlan[*].radio.receiver.errorModelType "\"StochasticErrorModel\""
param **.host[*].wlan[*].radio.receiver.errorModel.bitErrorRate 0.00000001
param *.host[*].wlan[*].opMode "\"g(erp)\""
param *.host[*].wlan[*].mac.*.rateControl.typename "\"\""
param *.host[*].networkLayer.arp.typename "\"GlobalArp\""
param *.host[*].wlan[*].mac.*.rateControl.initialRate 54Mbps
param *.host[*].wlan[*].mac.*.rateSelection.dataFrameBitrate "(\"\" == \"\" ? 54Mbps : -1bps)"
param **.wlan[*].radio.transmitter.power 15.0mW
param *.host[*].wlan[*].radio.receiver.ignoreInterference false
param **.radio.bandwidth 20MHz
param **.radio.centerFrequency 2.45GHz
param **.radio.channelNumber 8
param *.host[*].energyStorage.typename "\"SimpleEpEnergyStorage\""
param *.host[*].wlan[*].radio.energyConsumer.typename "\"StateBasedEpEnergyConsumer\""
param *.host[*].energyManagement.typename "\"SimpleEpEnergyManagement\""
param *.host[*].energyStorage.nominalCapacity 5J
param *.host[*].energyManagement.nodeShutdownCapacity "0.1 * energyStorage.nominalCapacity"
param *.host[*].energyManagement.nodeStartCapacity "0.5 * energyStorage.nominalCapacity"
param *.host[*].energyStorage.initialCapacity "uniform(0.6 * energyStorage.nominalCapacity, energyStorage.nominalCapacity)"
param *.host[*].wlan[*].radio.energyConsumer.sleepPowerConsumption 0.1mW
param *.host[*].wlan[*].radio.energyConsumer.receiverIdlePowerConsumption 4mW
param *.host[*].wlan[*].radio.energyConsumer.receiverBusyPowerConsumption 10mW
param *.host[*].wlan[*].radio.energyConsumer.receiverReceivingPowerConsumption 20mW
param *.host[*].wlan[*].radio.energyConsumer.transmitterIdlePowerConsumption 4mW
param *.host[*].wlan[*].radio.energyConsumer.transmitterTransmittingPowerConsumption 200mW
param **.backgroundNoise.power -110dBm
param *.physicalEnvironment.config "xmldoc(\"walls.xml\")"
param *.physicalEnvironment.ground.typename "\"FlatGround\""
param *.radioMedium.pathLoss.typename "\"LogNormalShadowing\""
param *.radioMedium.pathLoss.sigma 9
param *.radioMedium.obstacleLoss.typename "\"DielectricObstacleLoss\""
param *.visualizer.sceneVisualizer.descriptionFigure default
param *.visualizer.networkRouteVisualizer.displayRoutes true
param *.visualizer.mediumVisualizer.displaySignals false
param *.visualizer.physicalLinkVisualizer.packetFilter "\"UDP*\""
param *.visualizer.sceneVisualizer.descriptionFigure "\"title\""
param *.visualizer.networkRouteVisualizer.packetFilter "\"*UdpBasicAppData*\""
param *.visualizer.mediumVisualizer.signalPropagationUpdateInterval 100ns
param *.host[0..1].wlan[*].radio.displayCommunicationRange true
param *.visualizer.mobilityVisualizer.displayMovementTrail true
param *.configurator.addStaticRoutes false
param *.numHosts 7
param **.constraintAreaMinX 440m
param **.constraintAreaMaxX 1900m
param **.constraintAreaMinY 0m
param **.constraintAreaMaxY 2000m
param **.constraintAreaMinZ 0m
param **.constraintAreaMaxZ 1000m

vector 0 manet.host[0].energyStorage residualEnergyCapacity:vector ETV
attr interpolationmode linear
attr source residualEnergyCapacityChanged
attr title "Residual energy capacity, vector"
vector 1 manet.host[1].energyStorage residualEnergyCapacity:vector ETV
attr interpolationmode linear
attr source residualEnergyCapacityChanged
attr title "Residual energy capacity, vector"
vector 2 manet.host[2].energyStorage residualEnergyCapacity:vector ETV
attr interpolationmode linear
attr source residualEnergyCapacityChanged
attr title "Residual energy capacity, vector"
vector 3 manet.host[3].energyStorage residualEnergyCapacity:vector ETV
attr interpolationmode linear
attr source residualEnergyCapacityChanged
attr title "Residual energy capacity, vector"
vector 4 manet.host[4].energyStorage residualEnergyCapacity:vector ETV
attr interpolationmode linear
attr source residualEnergyCapacityChanged
attr title "Residual energy capacity, vector"
vector 5 manet.host[5].energyStorage residualEnergyCapacity:vector ETV
attr interpolationmode linear
attr source residualEnergyCapacityChanged
attr title "Residual energy capacity, vector"
vector 6 manet.host[6].energyStorage residualEnergyCapacity:vector ETV
attr interpolationmode linear
attr source residualEnergyCapacityChanged
attr title "Residual energy capacity, vector"
vector 7 manet.host[0].energyStorage powerConsumption:vector ETV
attr interpolationmode sample-hold
attr source powerConsumptionChanged
attr title "Power consumption, vector"
vector 8 manet.host[1].energyStorage powerConsumption:vector ETV
attr interpolationmode sample-hold
attr source powerConsumptionChanged
attr title "Power consumption, vector"
vector 9 manet.host[2].energyStorage powerConsumption:vector ETV
attr interpolationmode sample-hold
attr source powerConsumptionChanged
attr title "Power consumption, vector"
vector 10 manet.host[3].energyStorage powerConsumption:vector ETV
attr interpolationmode sample-hold
attr source powerConsumptionChanged
attr title "Power consumption, vector"
vector 11 manet.host[4].energyStorage powerConsumption:vector ETV
attr interpolationmode sample-hold
attr source powerConsumptionChanged
attr title "Power consumption, vector"
vector 12 manet.host[5].energyStorage powerConsumption:vector ETV
attr interpolationmode sample-hold
attr source powerConsumptionChanged
attr title "Power consumption, vector"
vector 13 manet.host[6].energyStorage powerConsumption:vector ETV
attr interpolationmode sample-hold
attr source powerConsumptionChanged
attr title "Power consumption, vector"
vector 14 manet.host[0].wlan[0].radio radioMode:vector ETV
attr interpolationmode sample-hold
attr source radioModeChanged
attr title "Radio mode, vector"
vector 15 manet.host[0].wlan[0].radio.energyConsumer powerConsumption:vector ETV
attr interpolationmode sample-hold
attr source powerConsumptionChanged
attr title "Power consumption, vector"
vector 16 manet.host[0].wlan[0].radio radioChannel:vector ETV
attr interpolationmode sample-hold
attr source radioChannelChanged
attr title "Radio channel, vector"
vector 17 manet.host[1].wlan[0].radio radioMode:vector ETV
attr interpolationmode sample-hold
attr source radioModeChanged
attr title "Radio mode, vector"
vector 18 manet.host[1].wlan[0].radio.energyConsumer powerConsumption:vector ETV
attr interpolationmode sample-hold
attr source powerConsumptionChanged
attr title "Power consumption, vector"
vector 19 manet.host[1].wlan[0].radio radioChannel:vector ETV
attr interpolationmode sample-hold
attr source radioChannelChanged
attr title "Radio channel, vector"
vector 20 manet.host[2].wlan[0].radio radioMode:vector ETV
attr interpolationmode sample-hold
attr source radioModeChanged
attr title "Radio mode, vector"
vector 21 manet.host[2].wlan[0].radio.energyConsumer powerConsumption:vector ETV
attr interpolationmode sample-hold
attr source powerConsumptionChanged
attr title "Power consumption, vector"
vector 22 manet.host[2].wlan[0].radio radioChannel:vector ETV
attr interpolationmode sample-hold
attr source radioChannelChanged
attr title "Radio channel, vector"
vector 23 manet.host[3].wlan[0].radio radioMode:vector ETV
attr interpolationmode sample-hold
attr source radioModeChanged
attr title "Radio mode, vector"
vector 24 manet.host[3].wlan[0].radio.energyConsumer powerConsumption:vector ETV
attr interpolationmode sample-hold
attr source powerConsumptionChanged
attr title "Power consumption, vector"
vector 25 manet.host[3].wlan[0].radio radioChannel:vector ETV
attr interpolationmode sample-hold
attr source radioChannelChanged
attr title "Radio channel, vector"
vector 26 manet.host[4].wlan[0].radio radioMode:vector ETV
attr interpolationmode sample-hold
attr source radioModeChanged
attr title "Radio mode, vector"
vector 27 manet.host[4].wlan[0].radio.energyConsumer powerConsumption:vector ETV
attr interpolationmode sample-hold
attr source powerConsumptionChanged
attr title "Power consumption, vector"
vector 28 manet.host[4].wlan[0].radio radioChannel:vector ETV
attr interpolationmode sample-hold
attr source radioChannelChanged
attr title "Radio channel, vector"
vector 29 manet.host[5].wlan[0].radio radioMode:vector ETV
attr interpolationmode sample-hold
attr source radioModeChanged
attr title "Radio mode, vector"
vector 30 manet.host[5].wlan[0].radio.energyConsumer powerConsumption:vector ETV
attr interpolationmode sample-hold
attr source powerConsumptionChanged
attr title "Power consumption, vector"
vector 31 manet.host[5].wlan[0].radio radioChannel:vector ETV
attr interpolationmode sample-hold
attr source radioChannelChanged
attr title "Radio channel, vector"
vector 32 manet.host[6].wlan[0].radio radioMode:vector ETV
attr interpolationmode sample-hold
attr source radioModeChanged
attr title "Radio mode, vector"
vector 33 manet.host[6].wlan[0].radio.energyConsumer powerConsumption:vector ETV
attr interpolationmode sample-hold
attr source powerConsumptionChanged
attr title "Power consumption, vector"
vector 34 manet.host[6].wlan[0].radio radioChannel:vector ETV
attr interpolationmode sample-hold
attr source radioChannelChanged
attr title "Radio channel, vector"
vector 35 manet.host[0].wlan[0].radio receptionState:vector ETV
attr interpolationmode sample-hold
attr source receptionStateChanged
attr title "Radio reception state, vector"
vector 36 manet.host[1].wlan[0].radio receptionState:vector ETV
attr interpolationmode sample-hold
attr source receptionStateChanged
attr title "Radio reception state, vector"
vector 37 manet.host[2].wlan[0].radio receptionState:vector ETV
attr interpolationmode sample-hold
attr source receptionStateChanged
attr title "Radio reception state, vector"
vector 38 manet.host[3].wlan[0].radio receptionState:vector ETV
attr interpolationmode sample-hold
attr source receptionStateChanged
attr title "Radio reception state, vector"
vector 39 manet.host[4].wlan[0].radio receptionState:vector ETV
attr interpolationmode sample-hold
attr source receptionStateChanged
attr title "Radio reception state, vector"
vector 40 manet.host[5].wlan[0].radio receptionState:vector ETV
attr interpolationmode sample-hold
attr source receptionStateChanged
attr title "Radio reception state, vector"
vector 41 manet.host[6].wlan[0].radio receptionState:vector ETV
attr interpolationmode sample-hold
attr source receptionStateChanged
attr title "Radio reception state, vector"
vector 42 manet.host[0].wlan[0].mac.dcf.recoveryProcedure contentionWindowChanged:vector ETV
attr interpolationmode sample-hold
attr title "contention window, vector"
vector 43 manet.host[1].wlan[0].mac.dcf.recoveryProcedure contentionWindowChanged:vector ETV
attr interpolationmode sample-hold
attr title "contention window, vector"
vector 44 manet.host[2].wlan[0].mac.dcf.recoveryProcedure contentionWindowChanged:vector ETV
attr interpolationmode sample-hold
attr title "contention window, vector"
vector 45 manet.host[3].wlan[0].mac.dcf.recoveryProcedure contentionWindowChanged:vector ETV
attr interpolationmode sample-hold
attr title "contention window, vector"
vector 46 manet.host[4].wlan[0].mac.dcf.recoveryProcedure contentionWindowChanged:vector ETV
attr interpolationmode sample-hold
attr title "contention window, vector"
vector 47 manet.host[5].wlan[0].mac.dcf.recoveryProcedure contentionWindowChanged:vector ETV
attr interpolationmode sample-hold
attr title "contention window, vector"
vector 48 manet.host[6].wlan[0].mac.dcf.recoveryProcedure contentionWindowChanged:vector ETV
attr interpolationmode sample-hold
attr title "contention window, vector"
vector 49 manet.host[0].app[0] packetSent:vector(packetBytes) ETV
attr interpolationmode none
attr source packetSent
attr title "packets sent, vector(packetBytes)"
vector 50 manet.host[0].udp packetSent:vector(packetBytes) ETV
attr interpolationmode none
attr source packetSent
attr title "packets sent, vector(packetBytes)"
vector 51 manet.host[0].wlan[0].mac packetReceivedFromUpper:vector(packetBytes) ETV
attr interpolationmode none
attr title "packets received from upper layer, vector(packetBytes)"
vector 52 manet.host[0].wlan[0].mac.dcf.channelAccess.pendingQueue packetPushed:vector(packetBytes) ETV
attr interpolationmode none
attr title "packet pushed, vector(packetBytes)"
vector 53 manet.host[0].wlan[0].mac.dcf.channelAccess.pendingQueue queueLength:vector ETV
attr interpolationmode sample-hold
attr source "count(packetPushed) - count(packetPopped) - count(packetRemoved) - count(packetDropped)"
attr title "queue length, vector"
vector 54 manet.host[0].wlan[0].mac.dcf.channelAccess.contention backoffPeriodGenerated:vector ETV
attr interpolationmode none
attr title "backoff periods, vector"
vector 55 manet.host[0].wlan[0].mac.dcf.channelAccess.contention backoffActive:vector ETV
attr interpolationmode sample-hold
attr source count(backoffStarted)-count(backoffStopped)
attr title "backoff active, vector"
vector 56 manet.host[0].wlan[0].mac.dcf.channelAccess.pendingQueue packetPopped:vector(packetBytes) ETV
attr interpolationmode none
attr title "packet popped, vector(packetBytes)"
vector 57 manet.host[0].wlan[0].mac.dcf.channelAccess.pendingQueue queueingTime:vector ETV
attr interpolationmode none
attr source queueingTime(packetPopped)
attr title "queueing times, vector"
attr unit s
vector 58 manet.host[0].wlan[0].mac.dcf.channelAccess.inProgressFrames queueLength:vector ETV
attr interpolationmode sample-hold
attr source "count(packetEnqueued) - count(packetDequeued)"
attr title "queue length, vector"
vector 59 manet.host[0].wlan[0].mac.dcf datarateSelected:vector ETV
attr interpolationmode none
attr title "datarates selected, vector"
vector 60 manet.host[0].wlan[0].mac packetSentToLower:vector(packetBytes) ETV
attr interpolationmode none
attr title "packets sent to lower layer, vector(packetBytes)"
vector 61 manet.host[0].wlan[0].mac.dcf frameSequenceActive:vector ETV
attr interpolationmode sample-hold
attr source count(frameSequenceStarted)-count(frameSequenceFinished)
attr title "frame sequence active, vector"
vector 62 manet.host[0].wlan[0].radio transmissionState:vector ETV
attr interpolationmode sample-hold
attr source transmissionStateChanged
attr title "Radio transmission state, vector"
vector 63 manet receptionPower:vector ETV
attr source receptionMinSignalPower(radioMedium.signalArrivalStarted)
vector 64 manet.host[0].wlan[0].mac.dcf packetSentToPeer:vector(packetBytes) ETV
attr interpolationmode none
attr title "packets sent, vector(packetBytes)"
vector 65 manet.host[0].wlan[0].mac.dcf packetSentToPeerMulticast:vector(packetBytes) ETV
attr interpolationmode none
attr source ieee80211Multicast(packetSentToPeer)
attr title "packets sent: multicast, vector(packetBytes)"
vector 66 manet.host[0].wlan[0].mac.dcf packetSentToPeerWithoutRetry:vector(packetBytes) ETV
attr interpolationmode none
attr source ieee80211NotRetry(packetSentToPeer)
attr title "packets sent: without retry, vector(packetBytes)"
vector 67 manet.host[0].wlan[0].mac.dcf.channelAccess.inProgressFrames queueingTime:vector ETV
attr interpolationmode none
attr source queueingTime(packetDequeued)
attr title "queueing times, vector"
vector 68 manet.host[2].wlan[0].radio minSnir:vector ETV
attr source minimumSnir(packetSentToUpper)
attr title "Min SNIR, vector"
vector 69 manet.host[2].wlan[0].radio packetErrorRate:vector ETV
attr source packetErrorRate(packetSentToUpper)
attr title "Packet error rate, vector"
vector 70 manet.host[2].wlan[0].radio bitErrorRate:vector ETV
attr source bitErrorRate(packetSentToUpper)
attr title "Bit error rate, vector"
vector 71 manet.host[2].wlan[0].mac packetReceivedFromLower:vector(packetBytes) ETV
attr interpolationmode none
attr title "packets received from lower layer, vector(packetBytes)"
vector 72 manet.host[2].wlan[0].mac.dcf packetReceivedFromPeer:vector(packetBytes) ETV
attr interpolationmode none
attr title "packets received, vector(packetBytes)"
vector 73 manet.host[2].wlan[0].mac.dcf packetReceivedFromPeerMulticast:vector(packetBytes) ETV
attr interpolationmode none
attr source ieee80211Multicast(packetReceivedFromPeer)
attr title "packets received: multicast, vector(packetBytes)"
vector 74 manet.host[2].wlan[0].mac.dcf packetReceivedFromPeerWithoutRetry:vector(packetBytes) ETV
attr interpolationmode none
attr source ieee80211NotRetry(packetReceivedFromPeer)
attr title "packets received: without retry, vector(packetBytes)"
vector 75 manet.host[2].wlan[0].mac packetSentToUpper:vector(packetBytes) ETV
attr interpolationmode none
attr title "packets sent to upper layer, vector(packetBytes)"
vector 76 manet.host[6].wlan[0].radio minSnir:vector ETV
attr source minimumSnir(packetSentToUpper)
attr title "Min SNIR, vector"
vector 77 manet.host[6].wlan[0].radio packetErrorRate:vector ETV
attr source packetErrorRate(packetSentToUpper)
attr title "Packet error rate, vector"
vector 78 manet.host[6].wlan[0].radio bitErrorRate:vector ETV
attr source bitErrorRate(packetSentToUpper)
attr title "Bit error rate, vector"
vector 79 manet.host[6].wlan[0].mac packetReceivedFromLower:vector(packetBytes) ETV
attr interpolationmode none
attr title "packets received from lower layer, vector(packetBytes)"
vector 80 manet.host[6].wlan[0].mac.dcf packetReceivedFromPeer:vector(packetBytes) ETV
attr interpolationmode none
attr title "packets received, vector(packetBytes)"
vector 81 manet.host[6].wlan[0].mac.dcf packetReceivedFromPeerMulticast:vector(packetBytes) ETV
attr interpolationmode none
attr source ieee80211Multicast(packetReceivedFromPeer)
attr title "packets received: multicast, vector(packetBytes)"
vector 82 manet.host[6].wlan[0].mac.dcf packetReceivedFromPeerWithoutRetry:vector(packetBytes) ETV
attr interpolationmode none
attr source ieee80211NotRetry(packetReceivedFromPeer)
attr title "packets received: without retry, vector(packetBytes)"
vector 83 manet.host[6].wlan[0].mac packetSentToUpper:vector(packetBytes) ETV
attr interpolationmode none
attr title "packets sent to upper layer, vector(packetBytes)"
vector 84 manet.host[1].wlan[0].radio minSnir:vector ETV
attr source minimumSnir(packetSentToUpper)
attr title "Min SNIR, vector"
vector 85 manet.host[1].wlan[0].radio packetErrorRate:vector ETV
attr source packetErrorRate(packetSentToUpper)
attr title "Packet error rate, vector"
vector 86 manet.host[1].wlan[0].radio bitErrorRate:vector ETV
attr source bitErrorRate(packetSentToUpper)
attr title "Bit error rate, vector"
vector 87 manet.host[1].wlan[0].mac packetReceivedFromLower:vector(packetBytes) ETV
attr interpolationmode none
attr title "packets received from lower layer, vector(packetBytes)"
vector 88 manet.host[1].wlan[0].mac.dcf packetReceivedFromPeer:vector(packetBytes) ETV
attr interpolationmode none
attr title "packets received, vector(packetBytes)"
vector 89 manet.host[1].wlan[0].mac.dcf packetReceivedFromPeerMulticast:vector(packetBytes) ETV
attr interpolationmode none
attr source ieee80211Multicast(packetReceivedFromPeer)
attr title "packets received: multicast, vector(packetBytes)"
vector 90 manet.host[1].wlan[0].mac.dcf packetReceivedFromPeerWithoutRetry:vector(packetBytes) ETV
attr interpolationmode none
attr source ieee80211NotRetry(packetReceivedFromPeer)
attr title "packets received: without retry, vector(packetBytes)"
vector 91 manet.host[1].wlan[0].mac packetSentToUpper:vector(packetBytes) ETV
attr interpolationmode none
attr title "packets sent to upper layer, vector(packetBytes)"
vector 92 manet.host[1].ipv4.arp arpRequestSent:vector(packetBytes) ETV
attr source arpRequestSent
attr title "ARP request sent, vector(packetBytes)"
vector 93 manet.host[1].wlan[0].mac packetReceivedFromUpper:vector(packetBytes) ETV
attr interpolationmode none
attr title "packets received from upper layer, vector(packetBytes)"
vector 94 manet.host[1].wlan[0].mac.dcf.channelAccess.pendingQueue packetPushed:vector(packetBytes) ETV
attr interpolationmode none
attr title "packet pushed, vector(packetBytes)"
vector 95 manet.host[1].wlan[0].mac.dcf.channelAccess.pendingQueue queueLength:vector ETV
attr interpolationmode sample-hold
attr source "count(packetPushed) - count(packetPopped) - count(packetRemoved) - count(packetDropped)"
attr title "queue length, vector"
vector 96 manet.host[1].wlan[0].mac.dcf.channelAccess.contention backoffPeriodGenerated:vector ETV
attr interpolationmode none
attr title "backoff periods, vector"
vector 97 manet.host[1].wlan[0].mac.dcf.channelAccess.contention backoffActive:vector ETV
attr interpolationmode sample-hold
attr source count(backoffStarted)-count(backoffStopped)
attr title "backoff active, vector"
vector 98 manet.host[1].wlan[0].mac.dcf.channelAccess.pendingQueue packetPopped:vector(packetBytes) ETV
attr interpolationmode none
attr title "packet popped, vector(packetBytes)"
vector 99 manet.host[1].wlan[0].mac.dcf.channelAccess.pendingQueue queueingTime:vector ETV
attr interpolationmode none
attr source queueingTime(packetPopped)
attr title "queueing times, vector"
attr unit s
vector 100 manet.host[1].wlan[0].mac.dcf.channelAccess.inProgressFrames queueLength:vector ETV
attr interpolationmode sample-hold
attr source "count(packetEnqueued) - count(packetDequeued)"
attr title "queue length, vector"
vector 101 manet.host[1].wlan[0].mac.dcf datarateSelected:vector ETV
attr interpolationmode none
attr title "datarates selected, vector"
vector 102 manet.host[1].wlan[0].mac packetSentToLower:vector(packetBytes) ETV
attr interpolationmode none
attr title "packets sent to lower layer, vector(packetBytes)"
vector 103 manet.host[1].wlan[0].mac.dcf frameSequenceActive:vector ETV
attr interpolationmode sample-hold
attr source count(frameSequenceStarted)-count(frameSequenceFinished)
attr title "frame sequence active, vector"
vector 104 manet.host[1].wlan[0].radio transmissionState:vector ETV
attr interpolationmode sample-hold
attr source transmissionStateChanged
attr title "Radio transmission state, vector"
vector 105 manet.host[1].wlan[0].mac.dcf packetSentToPeer:vector(packetBytes) ETV
attr interpolationmode none
attr title "packets sent, vector(packetBytes)"
vector 106 manet.host[1].wlan[0].mac.dcf packetSentToPeerMulticast:vector(packetBytes) ETV
attr interpolationmode none
attr source ieee80211Multicast(packetSentToPeer)
attr title "packets sent: multicast, vector(packetBytes)"
vector 107 manet.host[1].wlan[0].mac.dcf packetSentToPeerBroadcast:vector(packetBytes) ETV
attr interpolationmode none
attr source ieee80211Broadcast(packetSentToPeer)
attr title "packets sent: broadcast , vector(packetBytes)"
vector 108 manet.host[1].wlan[0].mac.dcf packetSentToPeerWithoutRetry:vector(packetBytes) ETV
attr interpolationmode none
attr source ieee80211NotRetry(packetSentToPeer)
attr title "packets sent: without retry, vector(packetBytes)"
vector 109 manet.host[1].wlan[0].mac.dcf.channelAccess.inProgressFrames queueingTime:vector ETV
attr interpolationmode none
attr source queueingTime(packetDequeued)
attr title "queueing times, vector"
vector 110 manet.host[2].wlan[0].mac packetReceivedFromUpper:vector(packetBytes) ETV
attr interpolationmode none
attr title "packets received from upper layer, vector(packetBytes)"
vector 111 manet.host[2].wlan[0].mac.dcf.channelAccess.pendingQueue packetPushed:vector(packetBytes) ETV
attr interpolationmode none
attr title "packet pushed, vector(packetBytes)"
vector 112 manet.host[2].wlan[0].mac.dcf.channelAccess.pendingQueue queueLength:vector ETV
attr interpolationmode sample-hold
attr source "count(packetPushed) - count(packetPopped) - count(packetRemoved) - count(packetDropped)"
attr title "queue length, vector"
vector 113 manet.host[2].wlan[0].mac.dcf.channelAccess.contention backoffPeriodGenerated:vector ETV
attr interpolationmode none
attr title "backoff periods, vector"
vector 114 manet.host[2].wlan[0].mac.dcf.channelAccess.contention backoffActive:vector ETV
attr interpolationmode sample-hold
attr source count(backoffStarted)-count(backoffStopped)
attr title "backoff active, vector"
vector 115 manet.host[2].wlan[0].mac.dcf.channelAccess.pendingQueue packetPopped:vector(packetBytes) ETV
attr interpolationmode none
attr title "packet popped, vector(packetBytes)"
vector 116 manet.host[2].wlan[0].mac.dcf.channelAccess.pendingQueue queueingTime:vector ETV
attr interpolationmode none
attr source queueingTime(packetPopped)
attr title "queueing times, vector"
attr unit s
vector 117 manet.host[2].wlan[0].mac.dcf.channelAccess.inProgressFrames queueLength:vector ETV
attr interpolationmode sample-hold
attr source "count(packetEnqueued) - count(packetDequeued)"
attr title "queue length, vector"
vector 118 manet.host[2].wlan[0].mac.dcf datarateSelected:vector ETV
attr interpolationmode none
attr title "datarates selected, vector"
vector 119 manet.host[2].wlan[0].mac packetSentToLower:vector(packetBytes) ETV
attr interpolationmode none
attr title "packets sent to lower layer, vector(packetBytes)"
vector 120 manet.host[2].wlan[0].mac.dcf frameSequenceActive:vector ETV
attr interpolationmode sample-hold
attr source count(frameSequenceStarted)-count(frameSequenceFinished)
attr title "frame sequence active, vector"
vector 121 manet.host[2].wlan[0].radio transmissionState:vector ETV
attr interpolationmode sample-hold
attr source transmissionStateChanged
attr title "Radio transmission state, vector"
vector 122 manet.host[2].wlan[0].mac.dcf packetSentToPeer:vector(packetBytes) ETV
attr interpolationmode none
attr title "packets sent, vector(packetBytes)"
vector 123 manet.host[2].wlan[0].mac.dcf packetSentToPeerMulticast:vector(packetBytes) ETV
attr interpolationmode none
attr source ieee80211Multicast(packetSentToPeer)
attr title "packets sent: multicast, vector(packetBytes)"
vector 124 manet.host[2].wlan[0].mac.dcf packetSentToPeerWithoutRetry:vector(packetBytes) ETV
attr interpolationmode none
attr source ieee80211NotRetry(packetSentToPeer)
attr title "packets sent: without retry, vector(packetBytes)"
vector 125 manet.host[2].wlan[0].mac.dcf.channelAccess.inProgressFrames queueingTime:vector ETV
attr interpolationmode none
attr source queueingTime(packetDequeued)
attr title "queueing times, vector"
vector 126 manet.host[5].wlan[0].radio minSnir:vector ETV
attr source minimumSnir(packetSentToUpper)
attr title "Min SNIR, vector"
vector 127 manet.host[5].wlan[0].radio packetErrorRate:vector ETV
attr source packetErrorRate(packetSentToUpper)
attr title "Packet error rate, vector"
vector 128 manet.host[5].wlan[0].radio bitErrorRate:vector ETV
attr source bitErrorRate(packetSentToUpper)
attr title "Bit error rate, vector"
vector 129 manet.host[5].wlan[0].mac packetReceivedFromLower:vector(packetBytes) ETV
attr interpolationmode none
attr title "packets received from lower layer, vector(packetBytes)"
vector 130 manet.host[5].wlan[0].mac.dcf packetReceivedFromPeer:vector(packetBytes) ETV
attr interpolationmode none
attr title "packets received, vector(packetBytes)"
vector 131 manet.host[5].wlan[0].mac.dcf packetReceivedFromPeerMulticast:vector(packetBytes) ETV
attr interpolationmode none
attr source ieee80211Multicast(packetReceivedFromPeer)
attr title "packets received: multicast, vector(packetBytes)"
vector 132 manet.host[5].wlan[0].mac.dcf packetReceivedFromPeerWithoutRetry:vector(packetBytes) ETV
attr interpolationmode none
attr source ieee80211NotRetry(packetReceivedFromPeer)
attr title "packets received: without retry, vector(packetBytes)"
vector 133 manet.host[5].wlan[0].mac packetSentToUpper:vector(packetBytes) ETV
attr interpolationmode none
attr title "packets sent to upper layer, vector(packetBytes)"
vector 134 manet.host[3].wlan[0].radio minSnir:vector ETV
attr source minimumSnir(packetSentToUpper)
attr title "Min SNIR, vector"
vector 135 manet.host[3].wlan[0].radio packetErrorRate:vector ETV
attr source packetErrorRate(packetSentToUpper)
attr title "Packet error rate, vector"
vector 136 manet.host[3].wlan[0].radio bitErrorRate:vector ETV
attr source bitErrorRate(packetSentToUpper)
attr title "Bit error rate, vector"
vector 137 manet.host[3].wlan[0].mac packetReceivedFromLower:vector(packetBytes) ETV
attr interpolationmode none
attr title "packets received from lower layer, vector(packetBytes)"
vector 138 manet.host[3].wlan[0].mac.dcf packetReceivedFromPeer:vector(packetBytes) ETV
attr interpolationmode none
attr title "packets received, vector(packetBytes)"
vector 139 manet.host[3].wlan[0].mac.dcf packetReceivedFromPeerMulticast:vector(packetBytes) ETV
attr interpolationmode none
attr source ieee80211Multicast(packetReceivedFromPeer)
attr title "packets received: multicast, vector(packetBytes)"
vector 140 manet.host[3].wlan[0].mac.dcf packetReceivedFromPeerWithoutRetry:vector(packetBytes) ETV
attr interpolationmode none
attr source ieee80211NotRetry(packetReceivedFromPeer)
attr title "packets received: without retry, vector(packetBytes)"
vector 141 manet.host[3].wlan[0].mac packetSentToUpper:vector(packetBytes) ETV
attr interpolationmode none
attr title "packets sent to upper layer, vector(packetBytes)"
vector 142 manet.host[4].wlan[0].radio minSnir:vector ETV
attr source minimumSnir(packetSentToUpper)
attr title "Min SNIR, vector"
vector 143 manet.host[4].wlan[0].radio packetErrorRate:vector ETV
attr source packetErrorRate(packetSentToUpper)
attr title "Packet error rate, vector"
vector 144 manet.host[4].wlan[0].radio bitErrorRate:vector ETV
attr source bitErrorRate(packetSentToUpper)
attr title "Bit error rate, vector"
vector 145 manet.host[4].wlan[0].mac packetReceivedFromLower:vector(packetBytes) ETV
attr interpolationmode none
attr title "packets received from lower layer, vector(packetBytes)"
vector 146 manet.host[4].wlan[0].mac.dcf packetReceivedFromPeer:vector(packetBytes) ETV
attr interpolationmode none
attr title "packets received, vector(packetBytes)"
vector 147 manet.host[4].wlan[0].mac.dcf packetReceivedFromPeerMulticast:vector(packetBytes) ETV
attr interpolationmode none
attr source ieee80211Multicast(packetReceivedFromPeer)
attr title "packets received: multicast, vector(packetBytes)"
vector 148 manet.host[4].wlan[0].mac.dcf packetReceivedFromPeerWithoutRetry:vector(packetBytes) ETV
attr interpolationmode none
attr source ieee80211NotRetry(packetReceivedFromPeer)
attr title "packets received: without retry, vector(packetBytes)"
vector 149 manet.host[4].wlan[0].mac packetSentToUpper:vector(packetBytes) ETV
attr interpolationmode none
attr title "packets sent to upper layer, vector(packetBytes)"
vector 150 manet.host[4].wlan[0].mac packetReceivedFromUpper:vector(packetBytes) ETV
attr interpolationmode none
attr title "packets received from upper layer, vector(packetBytes)"
vector 151 manet.host[4].wlan[0].mac.dcf.channelAccess.pendingQueue packetPushed:vector(packetBytes) ETV
attr interpolationmode none
attr title "packet pushed, vector(packetBytes)"
vector 152 manet.host[4].wlan[0].mac.dcf.channelAccess.pendingQueue queueLength:vector ETV
attr interpolationmode sample-hold
attr source "count(packetPushed) - count(packetPopped) - count(packetRemoved) - count(packetDropped)"
attr title "queue length, vector"
vector 153 manet.host[4].wlan[0].mac.dcf.channelAccess.contention backoffPeriodGenerated:vector ETV
attr interpolationmode none
attr title "backoff periods, vector"
vector 154 manet.host[4].wlan[0].mac.dcf.channelAccess.contention backoffActive:vector ETV
attr interpolationmode sample-hold
attr source count(backoffStarted)-count(backoffStopped)
attr title "backoff active, vector"
vector 155 manet.host[4].wlan[0].mac.dcf.channelAccess.pendingQueue packetPopped:vector(packetBytes) ETV
attr interpolationmode none
attr title "packet popped, vector(packetBytes)"
vector 156 manet.host[4].wlan[0].mac.dcf.channelAccess.pendingQueue queueingTime:vector ETV
attr interpolationmode none
attr source queueingTime(packetPopped)
attr title "queueing times, vector"
attr unit s
vector 157 manet.host[4].wlan[0].mac.dcf.channelAccess.inProgressFrames queueLength:vector ETV
attr interpolationmode sample-hold
attr source "count(packetEnqueued) - count(packetDequeued)"
attr title "queue length, vector"
vector 158 manet.host[4].wlan[0].mac.dcf datarateSelected:vector ETV
attr interpolationmode none
attr title "datarates selected, vector"
vector 159 manet.host[4].wlan[0].mac packetSentToLower:vector(packetBytes) ETV
attr interpolationmode none
attr title "packets sent to lower layer, vector(packetBytes)"
vector 160 manet.host[4].wlan[0].mac.dcf frameSequenceActive:vector ETV
attr interpolationmode sample-hold
attr source count(frameSequenceStarted)-count(frameSequenceFinished)
attr title "frame sequence active, vector"
vector 161 manet.host[4].wlan[0].radio transmissionState:vector ETV
attr interpolationmode sample-hold
attr source transmissionStateChanged
attr title "Radio transmission state, vector"
vector 162 manet.host[4].wlan[0].mac.dcf packetSentToPeer:vector(packetBytes) ETV
attr interpolationmode none
attr title "packets sent, vector(packetBytes)"
vector 163 manet.host[4].wlan[0].mac.dcf packetSentToPeerMulticast:vector(packetBytes) ETV
attr interpolationmode none
attr source ieee80211Multicast(packetSentToPeer)
attr title "packets sent: multicast, vector(packetBytes)"
vector 164 manet.host[4].wlan[0].mac.dcf packetSentToPeerWithoutRetry:vector(packetBytes) ETV
attr interpolationmode none
attr source ieee80211NotRetry(packetSentToPeer)
attr title "packets sent: without retry, vector(packetBytes)"
vector 165 manet.host[4].wlan[0].mac.dcf.channelAccess.inProgressFrames queueingTime:vector ETV
attr interpolationmode none
attr source queueingTime(packetDequeued)
attr title "queueing times, vector"
vector 166 manet.host[0].wlan[0].radio minSnir:vector ETV
attr source minimumSnir(packetSentToUpper)
attr title "Min SNIR, vector"
vector 167 manet.host[0].wlan[0].radio packetErrorRate:vector ETV
attr source packetErrorRate(packetSentToUpper)
attr title "Packet error rate, vector"
vector 168 manet.host[0].wlan[0].radio bitErrorRate:vector ETV
attr source bitErrorRate(packetSentToUpper)
attr title "Bit error rate, vector"
vector 169 manet.host[0].wlan[0].mac packetReceivedFromLower:vector(packetBytes) ETV
attr interpolationmode none
attr title "packets received from lower layer, vector(packetBytes)"
vector 170 manet.host[0].wlan[0].mac.dcf packetReceivedFromPeer:vector(packetBytes) ETV
attr interpolationmode none
attr title "packets received, vector(packetBytes)"
vector 171 manet.host[0].wlan[0].mac.dcf packetReceivedFromPeerMulticast:vector(packetBytes) ETV
attr interpolationmode none
attr source ieee80211Multicast(packetReceivedFromPeer)
attr title "packets received: multicast, vector(packetBytes)"
vector 172 manet.host[0].wlan[0].mac.dcf packetReceivedFromPeerWithoutRetry:vector(packetBytes) ETV
attr interpolationmode none
attr source ieee80211NotRetry(packetReceivedFromPeer)
attr title "packets received: without retry, vector(packetBytes)"
vector 173 manet.host[0].wlan[0].mac packetSentToUpper:vector(packetBytes) ETV
attr interpolationmode none
attr title "packets sent to upper layer, vector(packetBytes)"
vector 174 manet.host[6].wlan[0].mac packetReceivedFromUpper:vector(packetBytes) ETV
attr interpolationmode none
attr title "packets received from upper layer, vector(packetBytes)"
vector 175 manet.host[6].wlan[0].mac.dcf.channelAccess.pendingQueue packetPushed:vector(packetBytes) ETV
attr interpolationmode none
attr title "packet pushed, vector(packetBytes)"
vector 176 manet.host[6].wlan[0].mac.dcf.channelAccess.pendingQueue queueLength:vector ETV
attr interpolationmode sample-hold
attr source "count(packetPushed) - count(packetPopped) - count(packetRemoved) - count(packetDropped)"
attr title "queue length, vector"
vector 177 manet.host[6].wlan[0].mac.dcf.channelAccess.contention backoffPeriodGenerated:vector ETV
attr interpolationmode none
attr title "backoff periods, vector"
vector 178 manet.host[6].wlan[0].mac.dcf.channelAccess.contention backoffActive:vector ETV
attr interpolationmode sample-hold
attr source count(backoffStarted)-count(backoffStopped)
attr title "backoff active, vector"
vector 179 manet.host[6].wlan[0].mac.dcf.channelAccess.pendingQueue packetPopped:vector(packetBytes) ETV
attr interpolationmode none
attr title "packet popped, vector(packetBytes)"
vector 180 manet.host[6].wlan[0].mac.dcf.channelAccess.pendingQueue queueingTime:vector ETV
attr interpolationmode none
attr source queueingTime(packetPopped)
attr title "queueing times, vector"
attr unit s
vector 181 manet.host[6].wlan[0].mac.dcf.channelAccess.inProgressFrames queueLength:vector ETV
attr interpolationmode sample-hold
attr source "count(packetEnqueued) - count(packetDequeued)"
attr title "queue length, vector"
vector 182 manet.host[6].wlan[0].mac.dcf datarateSelected:vector ETV
attr interpolationmode none
attr title "datarates selected, vector"
vector 183 manet.host[6].wlan[0].mac packetSentToLower:vector(packetBytes) ETV
attr interpolationmode none
attr title "packets sent to lower layer, vector(packetBytes)"
vector 184 manet.host[6].wlan[0].mac.dcf frameSequenceActive:vector ETV
attr interpolationmode sample-hold
attr source count(frameSequenceStarted)-count(frameSequenceFinished)
attr title "frame sequence active, vector"
vector 185 manet.host[6].wlan[0].radio transmissionState:vector ETV
attr interpolationmode sample-hold
attr source transmissionStateChanged
attr title "Radio transmission state, vector"
vector 186 manet.host[6].wlan[0].mac.dcf packetSentToPeer:vector(packetBytes) ETV
attr interpolationmode none
attr title "packets sent, vector(packetBytes)"
vector 187 manet.host[6].wlan[0].mac.dcf packetSentToPeerMulticast:vector(packetBytes) ETV
attr interpolationmode none
attr source ieee80211Multicast(packetSentToPeer)
attr title "packets sent: multicast, vector(packetBytes)"
vector 188 manet.host[6].wlan[0].mac.dcf packetSentToPeerWithoutRetry:vector(packetBytes) ETV
attr interpolationmode none
attr source ieee80211NotRetry(packetSentToPeer)
attr title "packets sent: without retry, vector(packetBytes)"
vector 189 manet.host[6].wlan[0].mac.dcf.channelAccess.inProgressFrames queueingTime:vector ETV
attr interpolationmode none
attr source queueingTime(packetDequeued)
attr title "queueing times, vector"
vector 190 manet.host[3].wlan[0].mac packetReceivedFromUpper:vector(packetBytes) ETV
attr interpolationmode none
attr title "packets received from upper layer, vector(packetBytes)"
vector 191 manet.host[3].wlan[0].mac.dcf.channelAccess.pendingQueue packetPushed:vector(packetBytes) ETV
attr interpolationmode none
attr title "packet pushed, vector(packetBytes)"
vector 192 manet.host[3].wlan[0].mac.dcf.channelAccess.pendingQueue queueLength:vector ETV
attr interpolationmode sample-hold
attr source "count(packetPushed) - count(packetPopped) - count(packetRemoved) - count(packetDropped)"
attr title "queue length, vector"
vector 193 manet.host[3].wlan[0].mac.dcf.channelAccess.contention backoffPeriodGenerated:vector ETV
attr interpolationmode none
attr title "backoff periods, vector"
vector 194 manet.host[3].wlan[0].mac.dcf.channelAccess.contention backoffActive:vector ETV
attr interpolationmode sample-hold
attr source count(backoffStarted)-count(backoffStopped)
attr title "backoff active, vector"
vector 195 manet.host[3].wlan[0].mac.dcf.channelAccess.pendingQueue packetPopped:vector(packetBytes) ETV
attr interpolationmode none
attr title "packet popped, vector(packetBytes)"
vector 196 manet.host[3].wlan[0].mac.dcf.channelAccess.pendingQueue queueingTime:vector ETV
attr interpolationmode none
attr source queueingTime(packetPopped)
attr title "queueing times, vector"
attr unit s
vector 197 manet.host[3].wlan[0].mac.dcf.channelAccess.inProgressFrames queueLength:vector ETV
attr interpolationmode sample-hold
attr source "count(packetEnqueued) - count(packetDequeued)"
attr title "queue length, vector"
vector 198 manet.host[3].wlan[0].mac.dcf datarateSelected:vector ETV
attr interpolationmode none
attr title "datarates selected, vector"
vector 199 manet.host[3].wlan[0].mac packetSentToLower:vector(packetBytes) ETV
attr interpolationmode none
attr title "packets sent to lower layer, vector(packetBytes)"
vector 200 manet.host[3].wlan[0].mac.dcf frameSequenceActive:vector ETV
attr interpolationmode sample-hold
attr source count(frameSequenceStarted)-count(frameSequenceFinished)
attr title "frame sequence active, vector"
vector 201 manet.host[3].wlan[0].radio transmissionState:vector ETV
attr interpolationmode sample-hold
attr source transmissionStateChanged
attr title "Radio transmission state, vector"
vector 202 manet.host[3].wlan[0].mac.dcf packetSentToPeer:vector(packetBytes) ETV
attr interpolationmode none
attr title "packets sent, vector(packetBytes)"
vector 203 manet.host[3].wlan[0].mac.dcf packetSentToPeerMulticast:vector(packetBytes) ETV
attr interpolationmode none
attr source ieee80211Multicast(packetSentToPeer)
attr title "packets sent: multicast, vector(packetBytes)"
vector 204 manet.host[3].wlan[0].mac.dcf packetSentToPeerWithoutRetry:vector(packetBytes) ETV
attr interpolationmode none
attr source ieee80211NotRetry(packetSentToPeer)
attr title "packets sent: without retry, vector(packetBytes)"
vector 205 manet.host[3].wlan[0].mac.dcf.channelAccess.inProgressFrames queueingTime:vector ETV
attr interpolationmode none
attr source queueingTime(packetDequeued)
attr title "queueing times, vector"
vector 206 manet.host[5].wlan[0].mac packetReceivedFromUpper:vector(packetBytes) ETV
attr interpolationmode none
attr title "packets received from upper layer, vector(packetBytes)"
vector 207 manet.host[5].wlan[0].mac.dcf.channelAccess.pendingQueue packetPushed:vector(packetBytes) ETV
attr interpolationmode none
attr title "packet pushed, vector(packetBytes)"
vector 208 manet.host[5].wlan[0].mac.dcf.channelAccess.pendingQueue queueLength:vector ETV
attr interpolationmode sample-hold
attr source "count(packetPushed) - count(packetPopped) - count(packetRemoved) - count(packetDropped)"
attr title "queue length, vector"
vector 209 manet.host[5].wlan[0].mac.dcf.channelAccess.contention backoffPeriodGenerated:vector ETV
attr interpolationmode none
attr title "backoff periods, vector"
vector 210 manet.host[5].wlan[0].mac.dcf.channelAccess.contention backoffActive:vector ETV
attr interpolationmode sample-hold
attr source count(backoffStarted)-count(backoffStopped)
attr title "backoff active, vector"
vector 211 manet.host[5].wlan[0].mac.dcf.channelAccess.pendingQueue packetPopped:vector(packetBytes) ETV
attr interpolationmode none
attr title "packet popped, vector(packetBytes)"
vector 212 manet.host[5].wlan[0].mac.dcf.channelAccess.pendingQueue queueingTime:vector ETV
attr interpolationmode none
attr source queueingTime(packetPopped)
attr title "queueing times, vector"
attr unit s
vector 213 manet.host[5].wlan[0].mac.dcf.channelAccess.inProgressFrames queueLength:vector ETV
attr interpolationmode sample-hold
attr source "count(packetEnqueued) - count(packetDequeued)"
attr title "queue length, vector"
vector 214 manet.host[5].wlan[0].mac.dcf datarateSelected:vector ETV
attr interpolationmode none
attr title "datarates selected, vector"
vector 215 manet.host[5].wlan[0].mac packetSentToLower:vector(packetBytes) ETV
attr interpolationmode none
attr title "packets sent to lower layer, vector(packetBytes)"
vector 216 manet.host[5].wlan[0].mac.dcf frameSequenceActive:vector ETV
attr interpolationmode sample-hold
attr source count(frameSequenceStarted)-count(frameSequenceFinished)
attr title "frame sequence active, vector"
vector 217 manet.host[5].wlan[0].radio transmissionState:vector ETV
attr interpolationmode sample-hold
attr source transmissionStateChanged
attr title "Radio transmission state, vector"
vector 218 manet.host[5].wlan[0].mac.dcf packetSentToPeer:vector(packetBytes) ETV
attr interpolationmode none
attr title "packets sent, vector(packetBytes)"
vector 219 manet.host[5].wlan[0].mac.dcf packetSentToPeerMulticast:vector(packetBytes) ETV
attr interpolationmode none
attr source ieee80211Multicast(packetSentToPeer)
attr title "packets sent: multicast, vector(packetBytes)"
vector 220 manet.host[5].wlan[0].mac.dcf packetSentToPeerWithoutRetry:vector(packetBytes) ETV
attr interpolationmode none
attr source ieee80211NotRetry(packetSentToPeer)
attr title "packets sent: without retry, vector(packetBytes)"
vector 221 manet.host[5].wlan[0].mac.dcf.channelAccess.inProgressFrames queueingTime:vector ETV
attr interpolationmode none
attr source queueingTime(packetDequeued)
attr title "queueing times, vector"
vector 222 manet.host[3].wlan[0].mac packetDrop:vector(packetBytes) ETV
attr interpolationmode none
attr source packetDropped
attr title "packet drops, vector(packetBytes)"
vector 223 manet.host[3].wlan[0].mac packetDropIncorrectlyReceived:vector(packetBytes) ETV
attr interpolationmode none
attr source packetDropReasonIsIncorrectlyReceived(packetDropped)
attr title "packet drops: incorrectly received, vector(packetBytes)"
vector 224 manet.host[2].wlan[0].mac packetDrop:vector(packetBytes) ETV
attr interpolationmode none
attr source packetDropped
attr title "packet drops, vector(packetBytes)"
vector 225 manet.host[2].wlan[0].mac packetDropIncorrectlyReceived:vector(packetBytes) ETV
attr interpolationmode none
attr source packetDropReasonIsIncorrectlyReceived(packetDropped)
attr title "packet drops: incorrectly received, vector(packetBytes)"
vector 226 manet.host[5].wlan[0].mac packetDrop:vector(packetBytes) ETV
attr interpolationmode none
attr source packetDropped
attr title "packet drops, vector(packetBytes)"
vector 227 manet.host[5].wlan[0].mac packetDropIncorrectlyReceived:vector(packetBytes) ETV
attr interpolationmode none
attr source packetDropReasonIsIncorrectlyReceived(packetDropped)
attr title "packet drops: incorrectly received, vector(packetBytes)"
vector 228 manet.host[0].wlan[0].mac packetDrop:vector(packetBytes) ETV
attr interpolationmode none
attr source packetDropped
attr title "packet drops, vector(packetBytes)"
vector 229 manet.host[0].wlan[0].mac packetDropIncorrectlyReceived:vector(packetBytes) ETV
attr interpolationmode none
attr source packetDropReasonIsIncorrectlyReceived(packetDropped)
attr title "packet drops: incorrectly received, vector(packetBytes)"
vector 230 manet.host[1].wlan[0].mac packetDrop:vector(packetBytes) ETV
attr interpolationmode none
attr source packetDropped
attr title "packet drops, vector(packetBytes)"
vector 231 manet.host[1].wlan[0].mac packetDropIncorrectlyReceived:vector(packetBytes) ETV
attr interpolationmode none
attr source packetDropReasonIsIncorrectlyReceived(packetDropped)
attr title "packet drops: incorrectly received, vector(packetBytes)"
vector 232 manet.host[4].wlan[0].mac packetDrop:vector(packetBytes) ETV
attr interpolationmode none
attr source packetDropped
attr title "packet drops, vector(packetBytes)"
vector 233 manet.host[4].wlan[0].mac packetDropIncorrectlyReceived:vector(packetBytes) ETV
attr interpolationmode none
attr source packetDropReasonIsIncorrectlyReceived(packetDropped)
attr title "packet drops: incorrectly received, vector(packetBytes)"
vector 234 manet.host[2].wlan[0].mac.dcf packetReceivedFromPeerBroadcast:vector(packetBytes) ETV
attr interpolationmode none
attr source ieee80211Broadcast(packetReceivedFromPeer)
attr title "packets received: broadcast, vector(packetBytes)"
vector 235 manet.host[5].wlan[0].mac.dcf packetReceivedFromPeerBroadcast:vector(packetBytes) ETV
attr interpolationmode none
attr source ieee80211Broadcast(packetReceivedFromPeer)
attr title "packets received: broadcast, vector(packetBytes)"
vector 236 manet.host[3].wlan[0].mac.dcf packetReceivedFromPeerBroadcast:vector(packetBytes) ETV
attr interpolationmode none
attr source ieee80211Broadcast(packetReceivedFromPeer)
attr title "packets received: broadcast, vector(packetBytes)"
vector 237 manet.host[1].ipv4.ip packetDropAddressResolutionFailed:vector(packetBytes) ETV
attr interpolationmode none
attr source packetDropReasonIsAddressResolutionFailed(packetDropped)
attr title "packet drop: address resolution failed, vector(packetBytes)"
vector 238 manet.host[6].wlan[0].mac.dcf packetReceivedFromPeerBroadcast:vector(packetBytes) ETV
attr interpolationmode none
attr source ieee80211Broadcast(packetReceivedFromPeer)
attr title "packets received: broadcast, vector(packetBytes)"
vector 239 manet.host[4].wlan[0].mac.dcf packetReceivedFromPeerBroadcast:vector(packetBytes) ETV
attr interpolationmode none
attr source ieee80211Broadcast(packetReceivedFromPeer)
attr title "packets received: broadcast, vector(packetBytes)"
vector 240 manet.host[5].ipv4.arp arpReplySent:vector(packetBytes) ETV
attr source arpReplySent
attr title "ARP replies sent, vector(packetBytes)"
vector 241 manet.host[5].wlan[0].mac.dcf packetSentToPeerUnicast:vector(packetBytes) ETV
attr interpolationmode none
attr source ieee80211Unicast(packetSentToPeer)
attr title "packets sent: unicast, vector(packetBytes)"
vector 242 manet.host[5].wlan[0].mac.rx nav:vector ETV
attr interpolationmode linear
attr source navChanged
attr title "network allocation vector, vector"
vector 243 manet.host[3].wlan[0].mac.rx nav:vector ETV
attr interpolationmode linear
attr source navChanged
attr title "network allocation vector, vector"
vector 244 manet.host[3].wlan[0].mac.dcf packetDrop:vector(packetBytes) ETV
attr interpolationmode none
attr source packetDropped
attr title "packet drops, vector(packetBytes)"
vector 245 manet.host[3].wlan[0].mac.dcf packetDropNotAddressedToUs:vector(packetBytes) ETV
attr interpolationmode none
attr source packetDropReasonIsNotAddressedToUs(packetDropped)
attr title "packet drops: not addressed to us, vector(packetBytes)"
vector 246 manet.host[3].wlan[0].mac packetDropNotAddressedToUs:vector(packetBytes) ETV
attr interpolationmode none
attr source packetDropReasonIsNotAddressedToUs(packetDropped)
attr title "packet drops: not addressed to us, vector(packetBytes)"
vector 247 manet.host[4].wlan[0].mac.rx nav:vector ETV
attr interpolationmode linear
attr source navChanged
attr title "network allocation vector, vector"
vector 248 manet.host[4].wlan[0].mac.dcf packetDrop:vector(packetBytes) ETV
attr interpolationmode none
attr source packetDropped
attr title "packet drops, vector(packetBytes)"
vector 249 manet.host[4].wlan[0].mac.dcf packetDropNotAddressedToUs:vector(packetBytes) ETV
attr interpolationmode none
attr source packetDropReasonIsNotAddressedToUs(packetDropped)
attr title "packet drops: not addressed to us, vector(packetBytes)"
vector 250 manet.host[4].wlan[0].mac packetDropNotAddressedToUs:vector(packetBytes) ETV
attr interpolationmode none
attr source packetDropReasonIsNotAddressedToUs(packetDropped)
attr title "packet drops: not addressed to us, vector(packetBytes)"
vector 251 manet.host[2].wlan[0].mac.rx nav:vector ETV
attr interpolationmode linear
attr source navChanged
attr title "network allocation vector, vector"
vector 252 manet.host[2].wlan[0].mac.dcf packetDrop:vector(packetBytes) ETV
attr interpolationmode none
attr source packetDropped
attr title "packet drops, vector(packetBytes)"
vector 253 manet.host[2].wlan[0].mac.dcf packetDropNotAddressedToUs:vector(packetBytes) ETV
attr interpolationmode none
attr source packetDropReasonIsNotAddressedToUs(packetDropped)
attr title "packet drops: not addressed to us, vector(packetBytes)"
vector 254 manet.host[2].wlan[0].mac packetDropNotAddressedToUs:vector(packetBytes) ETV
attr interpolationmode none
attr source packetDropReasonIsNotAddressedToUs(packetDropped)
attr title "packet drops: not addressed to us, vector(packetBytes)"
vector 255 manet.host[5].wlan[0].mac.dcf packetSentToPeerWithRetry:vector(packetBytes) ETV
attr interpolationmode none
attr source ieee80211Retry(packetSentToPeer)
attr title "packets sent: with retry, vector(packetBytes)"
vector 256 manet.host[0].wlan[0].mac.rx nav:vector ETV
attr interpolationmode linear
attr source navChanged
attr title "network allocation vector, vector"
vector 257 manet.host[0].wlan[0].mac.dcf packetDrop:vector(packetBytes) ETV
attr interpolationmode none
attr source packetDropped
attr title "packet drops, vector(packetBytes)"
vector 258 manet.host[0].wlan[0].mac.dcf packetDropNotAddressedToUs:vector(packetBytes) ETV
attr interpolationmode none
attr source packetDropReasonIsNotAddressedToUs(packetDropped)
attr title "packet drops: not addressed to us, vector(packetBytes)"
vector 259 manet.host[0].wlan[0].mac packetDropNotAddressedToUs:vector(packetBytes) ETV
attr interpolationmode none
attr source packetDropReasonIsNotAddressedToUs(packetDropped)
attr title "packet drops: not addressed to us, vector(packetBytes)"
vector 260 manet.host[1].wlan[0].mac.dcf packetReceivedFromPeerUnicast:vector(packetBytes) ETV
attr interpolationmode none
attr source ieee80211Unicast(packetReceivedFromPeer)
attr title "packets received: unicast, vector(packetBytes)"
vector 261 manet.host[1].wlan[0].mac.dcf packetReceivedFromPeerWithRetry:vector(packetBytes) ETV
attr interpolationmode none
attr source ieee80211Retry(packetReceivedFromPeer)
attr title "packets received: with retry, vector(packetBytes)"
vector 262 manet.host[6].wlan[0].mac.rx nav:vector ETV
attr interpolationmode linear
attr source navChanged
attr title "network allocation vector, vector"
vector 263 manet.host[6].wlan[0].mac.dcf packetDrop:vector(packetBytes) ETV
attr interpolationmode none
attr source packetDropped
attr title "packet drops, vector(packetBytes)"
vector 264 manet.host[6].wlan[0].mac.dcf packetDropNotAddressedToUs:vector(packetBytes) ETV
attr interpolationmode none
attr source packetDropReasonIsNotAddressedToUs(packetDropped)
attr title "packet drops: not addressed to us, vector(packetBytes)"
vector 265 manet.host[6].wlan[0].mac packetDrop:vector(packetBytes) ETV
attr interpolationmode none
attr source packetDropped
attr title "packet drops, vector(packetBytes)"
vector 266 manet.host[6].wlan[0].mac packetDropNotAddressedToUs:vector(packetBytes) ETV
attr interpolationmode none
attr source packetDropReasonIsNotAddressedToUs(packetDropped)
attr title "packet drops: not addressed to us, vector(packetBytes)"
vector 267 manet.host[1].wlan[0].mac.dcf packetSentToPeerUnicast:vector(packetBytes) ETV
attr interpolationmode none
attr source ieee80211Unicast(packetSentToPeer)
attr title "packets sent: unicast, vector(packetBytes)"
vector 268 manet.host[1].wlan[0].mac.rx nav:vector ETV
attr interpolationmode linear
attr source navChanged
attr title "network allocation vector, vector"
vector 269 manet.host[1].wlan[0].mac.dcf packetSentToPeerWithRetry:vector(packetBytes) ETV
attr interpolationmode none
attr source ieee80211Retry(packetSentToPeer)
attr title "packets sent: with retry, vector(packetBytes)"
vector 270 manet.host[5].wlan[0].mac.dcf packetDrop:vector(packetBytes) ETV
attr interpolationmode none
attr source packetDropped
attr title "packet drops, vector(packetBytes)"
vector 271 manet.host[5].wlan[0].mac.dcf packetDropRetryLimitReached:vector(packetBytes) ETV
attr interpolationmode none
attr source packetDropReasonIsRetryLimitReached(packetDropped)
attr title "packet drops: retry limit reached, vector(packetBytes)"
vector 272 manet.host[5].wlan[0].mac packetDropRetryLimitReached:vector(packetBytes) ETV
attr interpolationmode none
attr source packetDropReasonIsRetryLimitReached(packetDropped)
attr title "packet drops: retry limit reached, vector(packetBytes)"
vector 273 manet.host[1].wlan[0].mac.dcf packetDrop:vector(packetBytes) ETV
attr interpolationmode none
attr source packetDropped
attr title "packet drops, vector(packetBytes)"
vector 274 manet.host[1].wlan[0].mac.dcf packetDropRetryLimitReached:vector(packetBytes) ETV
attr interpolationmode none
attr source packetDropReasonIsRetryLimitReached(packetDropped)
attr title "packet drops: retry limit reached, vector(packetBytes)"
vector 275 manet.host[1].wlan[0].mac packetDropRetryLimitReached:vector(packetBytes) ETV
attr interpolationmode none
attr source packetDropReasonIsRetryLimitReached(packetDropped)
attr title "packet drops: retry limit reached, vector(packetBytes)"
vector 276 manet.host[6].wlan[0].mac packetDropIncorrectlyReceived:vector(packetBytes) ETV
attr interpolationmode none
attr source packetDropReasonIsIncorrectlyReceived(packetDropped)
attr title "packet drops: incorrectly received, vector(packetBytes)"
vector 277 manet.host[5].wlan[0].mac.dcf packetReceivedFromPeerUnicast:vector(packetBytes) ETV
attr interpolationmode none
attr source ieee80211Unicast(packetReceivedFromPeer)
attr title "packets received: unicast, vector(packetBytes)"
vector 278 manet.host[5].wlan[0].mac.dcf packetReceivedFromPeerWithRetry:vector(packetBytes) ETV
attr interpolationmode none
attr source ieee80211Retry(packetReceivedFromPeer)
attr title "packets received: with retry, vector(packetBytes)"
vector 279 manet.host[5].ipv4.arp arpRequestSent:vector(packetBytes) ETV
attr source arpRequestSent
attr title "ARP request sent, vector(packetBytes)"
vector 280 manet.host[5].wlan[0].mac.dcf packetSentToPeerBroadcast:vector(packetBytes) ETV
attr interpolationmode none
attr source ieee80211Broadcast(packetSentToPeer)
attr title "packets sent: broadcast , vector(packetBytes)"
vector 281 manet.host[4].ipv4.arp arpReplySent:vector(packetBytes) ETV
attr source arpReplySent
attr title "ARP replies sent, vector(packetBytes)"
vector 282 manet.host[4].wlan[0].mac.dcf packetSentToPeerUnicast:vector(packetBytes) ETV
attr interpolationmode none
attr source ieee80211Unicast(packetSentToPeer)
attr title "packets sent: unicast, vector(packetBytes)"
vector 283 manet.host[4].wlan[0].mac.dcf packetReceivedFromPeerUnicast:vector(packetBytes) ETV
attr interpolationmode none
attr source ieee80211Unicast(packetReceivedFromPeer)
attr title "packets received: unicast, vector(packetBytes)"
vector 284 manet.host[1].wlan[0].mac.dcf packetDropNotAddressedToUs:vector(packetBytes) ETV
attr interpolationmode none
attr source packetDropReasonIsNotAddressedToUs(packetDropped)
attr title "packet drops: not addressed to us, vector(packetBytes)"
vector 285 manet.host[1].wlan[0].mac packetDropNotAddressedToUs:vector(packetBytes) ETV
attr interpolationmode none
attr source packetDropReasonIsNotAddressedToUs(packetDropped)
attr title "packet drops: not addressed to us, vector(packetBytes)"
vector 286 manet.host[5].wlan[0].mac.dcf.recipientMacDataService packetDropDuplicateDetected:vector(packetBytes) ETV
attr interpolationmode none
attr source packetDropReasonIsDuplicateDetected(packetDropped)
attr title "packet drops: duplicate detected, vector(packetBytes)"
vector 287 manet.host[5].wlan[0].mac packetDropDuplicateDetected:vector(packetBytes) ETV
attr interpolationmode none
attr source packetDropReasonIsDuplicateDetected(packetDropped)
attr title "packet drops: duplicate detected, vector(packetBytes)"
vector 288 manet.host[4].wlan[0].mac.dcf packetReceivedFromPeerWithRetry:vector(packetBytes) ETV
attr interpolationmode none
attr source ieee80211Retry(packetReceivedFromPeer)
attr title "packets received: with retry, vector(packetBytes)"
vector 289 manet.host[4].wlan[0].mac.dcf.recipientMacDataService packetDropDuplicateDetected:vector(packetBytes) ETV
attr interpolationmode none
attr source packetDropReasonIsDuplicateDetected(packetDropped)
attr title "packet drops: duplicate detected, vector(packetBytes)"
vector 290 manet.host[4].wlan[0].mac packetDropDuplicateDetected:vector(packetBytes) ETV
attr interpolationmode none
attr source packetDropReasonIsDuplicateDetected(packetDropped)
attr title "packet drops: duplicate detected, vector(packetBytes)"
vector 291 manet.host[3].ipv4.arp arpReplySent:vector(packetBytes) ETV
attr source arpReplySent
attr title "ARP replies sent, vector(packetBytes)"
vector 292 manet.host[3].wlan[0].mac.dcf packetSentToPeerUnicast:vector(packetBytes) ETV
attr interpolationmode none
attr source ieee80211Unicast(packetSentToPeer)
attr title "packets sent: unicast, vector(packetBytes)"
vector 293 manet.host[5].wlan[0].mac.dcf packetDropNotAddressedToUs:vector(packetBytes) ETV
attr interpolationmode none
attr source packetDropReasonIsNotAddressedToUs(packetDropped)
attr title "packet drops: not addressed to us, vector(packetBytes)"
vector 294 manet.host[5].wlan[0].mac packetDropNotAddressedToUs:vector(packetBytes) ETV
attr interpolationmode none
attr source packetDropReasonIsNotAddressedToUs(packetDropped)
attr title "packet drops: not addressed to us, vector(packetBytes)"
vector 295 manet.host[3].wlan[0].mac.dcf packetSentToPeerWithRetry:vector(packetBytes) ETV
attr interpolationmode none
attr source ieee80211Retry(packetSentToPeer)
attr title "packets sent: with retry, vector(packetBytes)"
vector 296 manet.host[3].wlan[0].mac.dcf packetReceivedFromPeerUnicast:vector(packetBytes) ETV
attr interpolationmode none
attr source ieee80211Unicast(packetReceivedFromPeer)
attr title "packets received: unicast, vector(packetBytes)"
vector 297 manet.host[3].wlan[0].mac.dcf packetReceivedFromPeerWithRetry:vector(packetBytes) ETV
attr interpolationmode none
attr source ieee80211Retry(packetReceivedFromPeer)
attr title "packets received: with retry, vector(packetBytes)"
vector 298 manet.host[3].ipv4.arp arpRequestSent:vector(packetBytes) ETV
attr source arpRequestSent
attr title "ARP request sent, vector(packetBytes)"
vector 299 manet.host[3].wlan[0].mac.dcf packetSentToPeerBroadcast:vector(packetBytes) ETV
attr interpolationmode none
attr source ieee80211Broadcast(packetSentToPeer)
attr title "packets sent: broadcast , vector(packetBytes)"
vector 300 manet.host[0].wlan[0].mac.dcf packetReceivedFromPeerBroadcast:vector(packetBytes) ETV
attr interpolationmode none
attr source ieee80211Broadcast(packetReceivedFromPeer)
attr title "packets received: broadcast, vector(packetBytes)"
vector 301 manet.host[3].wlan[0].mac.dcf.recipientMacDataService packetDropDuplicateDetected:vector(packetBytes) ETV
attr interpolationmode none
attr source packetDropReasonIsDuplicateDetected(packetDropped)
attr title "packet drops: duplicate detected, vector(packetBytes)"
vector 302 manet.host[3].wlan[0].mac packetDropDuplicateDetected:vector(packetBytes) ETV
attr interpolationmode none
attr source packetDropReasonIsDuplicateDetected(packetDropped)
attr title "packet drops: duplicate detected, vector(packetBytes)"
vector 303 manet.host[4].wlan[0].mac.dcf packetSentToPeerWithRetry:vector(packetBytes) ETV
attr interpolationmode none
attr source ieee80211Retry(packetSentToPeer)
attr title "packets sent: with retry, vector(packetBytes)"
vector 304 manet.host[3].wlan[0].mac.dcf packetDropRetryLimitReached:vector(packetBytes) ETV
attr interpolationmode none
attr source packetDropReasonIsRetryLimitReached(packetDropped)
attr title "packet drops: retry limit reached, vector(packetBytes)"
vector 305 manet.host[3].wlan[0].mac packetDropRetryLimitReached:vector(packetBytes) ETV
attr interpolationmode none
attr source packetDropReasonIsRetryLimitReached(packetDropped)
attr title "packet drops: retry limit reached, vector(packetBytes)"
vector 306 manet.host[0].ipv4.arp arpReplySent:vector(packetBytes) ETV
attr source arpReplySent
attr title "ARP replies sent, vector(packetBytes)"
vector 307 manet.host[0].wlan[0].mac.dcf packetSentToPeerUnicast:vector(packetBytes) ETV
attr interpolationmode none
attr source ieee80211Unicast(packetSentToPeer)
attr title "packets sent: unicast, vector(packetBytes)"
vector 308 manet.host[0].wlan[0].mac.dcf packetSentToPeerWithRetry:vector(packetBytes) ETV
attr interpolationmode none
attr source ieee80211Retry(packetSentToPeer)
attr title "packets sent: with retry, vector(packetBytes)"
vector 309 manet.host[0].wlan[0].mac.dcf packetReceivedFromPeerUnicast:vector(packetBytes) ETV
attr interpolationmode none
attr source ieee80211Unicast(packetReceivedFromPeer)
attr title "packets received: unicast, vector(packetBytes)"
vector 310 manet.host[0].wlan[0].mac.dcf packetReceivedFromPeerWithRetry:vector(packetBytes) ETV
attr interpolationmode none
attr source ieee80211Retry(packetReceivedFromPeer)
attr title "packets received: with retry, vector(packetBytes)"
vector 311 manet.host[0].wlan[0].mac.dcf.channelAccess.pendingQueue packetDropQueueOverflow:vector(packetBytes) ETV
attr interpolationmode none
attr source packetDropReasonIsQueueOverflow(packetDropped)
attr title "packet drops: queue overflow, vector(packetBytes)"
vector 312 manet.host[0].wlan[0].mac.dcf packetDropQueueOverflow:vector(packetBytes) ETV
attr interpolationmode none
attr source packetDropReasonIsQueueOverflow(packetDropped)
attr title "packet drops: queue overflow, vector(packetBytes)"
vector 313 manet.host[0].wlan[0].mac packetDropQueueOverflow:vector(packetBytes) ETV
attr interpolationmode none
attr source packetDropReasonIsQueueOverflow(packetDropped)
attr title "packet drops: queue overflow, vector(packetBytes)"
vector 314 manet.host[0].wlan[0].mac.dcf packetDropRetryLimitReached:vector(packetBytes) ETV
attr interpolationmode none
attr source packetDropReasonIsRetryLimitReached(packetDropped)
attr title "packet drops: retry limit reached, vector(packetBytes)"
vector 315 manet.host[0].wlan[0].mac packetDropRetryLimitReached:vector(packetBytes) ETV
attr interpolationmode none
attr source packetDropReasonIsRetryLimitReached(packetDropped)
attr title "packet drops: retry limit reached, vector(packetBytes)"
vector 316 manet.host[1].wlan[0].mac.dcf.recipientMacDataService packetDropDuplicateDetected:vector(packetBytes) ETV
attr interpolationmode none
attr source packetDropReasonIsDuplicateDetected(packetDropped)
attr title "packet drops: duplicate detected, vector(packetBytes)"
vector 317 manet.host[1].wlan[0].mac packetDropDuplicateDetected:vector(packetBytes) ETV
attr interpolationmode none
attr source packetDropReasonIsDuplicateDetected(packetDropped)
attr title "packet drops: duplicate detected, vector(packetBytes)"
vector 318 manet.host[0].wlan[0].mac.dcf.recipientMacDataService packetDropDuplicateDetected:vector(packetBytes) ETV
attr interpolationmode none
attr source packetDropReasonIsDuplicateDetected(packetDropped)
attr title "packet drops: duplicate detected, vector(packetBytes)"
vector 319 manet.host[0].wlan[0].mac packetDropDuplicateDetected:vector(packetBytes) ETV
attr interpolationmode none
attr source packetDropReasonIsDuplicateDetected(packetDropped)
attr title "packet drops: duplicate detected, vector(packetBytes)"
vector 320 manet.host[1].udp packetReceived:vector(packetBytes) ETV
attr interpolationmode none
attr source packetReceived
attr title "packets received, vector(packetBytes)"
vector 321 manet endToEndDelay:vector ETV
attr interpolationmode none
attr source dataAge(packetReceived)
attr title "end-to-end delay, vector"
attr unit s
vector 322 manet.host[1].udp passedUpPk:vector(count) ETV
attr interpolationmode none
attr source packetSentToUpper
attr title "packets passed up, vector(count)"
vector 323 manet.host[1].app[0] packetReceived:vector(packetBytes) ETV
attr interpolationmode none
attr source packetReceived
attr title "packets received, vector(packetBytes)"
vector 324 manet.host[1].app[0] throughput:vector ETV
attr source throughput(packetReceived)
attr title "throughput, vector"
attr unit bps
vector 325 manet.host[1].app[0] endToEndDelay:vector ETV
attr interpolationmode none
attr source dataAge(packetReceived)
attr title "end-to-end delay, vector"
attr unit s
vector 326 manet.host[1].app[0] rcvdPkSeqNo:vector ETV
attr interpolationmode none
attr source appPkSeqNo(packetReceived)
attr title "received packet sequence number, vector"
vector 327 manet.host[2].ipv4.arp arpReplySent:vector(packetBytes) ETV
attr source arpReplySent
attr title "ARP replies sent, vector(packetBytes)"
vector 328 manet.host[2].wlan[0].mac.dcf packetSentToPeerUnicast:vector(packetBytes) ETV
attr interpolationmode none
attr source ieee80211Unicast(packetSentToPeer)
attr title "packets sent: unicast, vector(packetBytes)"
vector 329 manet.host[2].wlan[0].mac.dcf packetSentToPeerWithRetry:vector(packetBytes) ETV
attr interpolationmode none
attr source ieee80211Retry(packetSentToPeer)
attr title "packets sent: with retry, vector(packetBytes)"
vector 330 manet.host[2].wlan[0].mac.dcf packetReceivedFromPeerUnicast:vector(packetBytes) ETV
attr interpolationmode none
attr source ieee80211Unicast(packetReceivedFromPeer)
attr title "packets received: unicast, vector(packetBytes)"
vector 331 manet.host[2].wlan[0].mac.dcf packetReceivedFromPeerWithRetry:vector(packetBytes) ETV
attr interpolationmode none
attr source ieee80211Retry(packetReceivedFromPeer)
attr title "packets received: with retry, vector(packetBytes)"
vector 332 manet.host[2].ipv4.arp arpRequestSent:vector(packetBytes) ETV
attr source arpRequestSent
attr title "ARP request sent, vector(packetBytes)"
vector 333 manet.host[2].wlan[0].mac.dcf packetSentToPeerBroadcast:vector(packetBytes) ETV
attr interpolationmode none
attr source ieee80211Broadcast(packetSentToPeer)
attr title "packets sent: broadcast , vector(packetBytes)"
vector 334 manet.host[1].wlan[0].mac.dcf packetReceivedFromPeerBroadcast:vector(packetBytes) ETV
attr interpolationmode none
attr source ieee80211Broadcast(packetReceivedFromPeer)
attr title "packets received: broadcast, vector(packetBytes)"
vector 335 manet.host[2].wlan[0].mac.dcf.recipientMacDataService packetDropDuplicateDetected:vector(packetBytes) ETV
attr interpolationmode none
attr source packetDropReasonIsDuplicateDetected(packetDropped)
attr title "packet drops: duplicate detected, vector(packetBytes)"
vector 336 manet.host[2].wlan[0].mac packetDropDuplicateDetected:vector(packetBytes) ETV
attr interpolationmode none
attr source packetDropReasonIsDuplicateDetected(packetDropped)
attr title "packet drops: duplicate detected, vector(packetBytes)"
vector 337 manet.host[2].wlan[0].mac.dcf packetDropRetryLimitReached:vector(packetBytes) ETV
attr interpolationmode none
attr source packetDropReasonIsRetryLimitReached(packetDropped)
attr title "packet drops: retry limit reached, vector(packetBytes)"
vector 338 manet.host[2].wlan[0].mac packetDropRetryLimitReached:vector(packetBytes) ETV
attr interpolationmode none
attr source packetDropReasonIsRetryLimitReached(packetDropped)
attr title "packet drops: retry limit reached, vector(packetBytes)"
vector 339 manet.host[6].ipv4.arp arpReplySent:vector(packetBytes) ETV
attr source arpReplySent
attr title "ARP replies sent, vector(packetBytes)"
vector 340 manet.host[6].wlan[0].mac.dcf packetSentToPeerUnicast:vector(packetBytes) ETV
attr interpolationmode none
attr source ieee80211Unicast(packetSentToPeer)
attr title "packets sent: unicast, vector(packetBytes)"
vector 341 manet.host[6].wlan[0].mac.dcf packetSentToPeerWithRetry:vector(packetBytes) ETV
attr interpolationmode none
attr source ieee80211Retry(packetSentToPeer)
attr title "packets sent: with retry, vector(packetBytes)"
vector 342 manet.host[6].wlan[0].mac.dcf packetReceivedFromPeerUnicast:vector(packetBytes) ETV
attr interpolationmode none
attr source ieee80211Unicast(packetReceivedFromPeer)
attr title "packets received: unicast, vector(packetBytes)"
vector 343 manet.host[6].wlan[0].mac.dcf packetReceivedFromPeerWithRetry:vector(packetBytes) ETV
attr interpolationmode none
attr source ieee80211Retry(packetReceivedFromPeer)
attr title "packets received: with retry, vector(packetBytes)"
vector 344 manet.host[6].ipv4.arp arpRequestSent:vector(packetBytes) ETV
attr source arpRequestSent
attr title "ARP request sent, vector(packetBytes)"
vector 345 manet.host[6].wlan[0].mac.dcf.recipientMacDataService packetDropDuplicateDetected:vector(packetBytes) ETV
attr interpolationmode none
attr source packetDropReasonIsDuplicateDetected(packetDropped)
attr title "packet drops: duplicate detected, vector(packetBytes)"
vector 346 manet.host[6].wlan[0].mac packetDropDuplicateDetected:vector(packetBytes) ETV
attr interpolationmode none
attr source packetDropReasonIsDuplicateDetected(packetDropped)
attr title "packet drops: duplicate detected, vector(packetBytes)"
vector 347 manet.host[6].wlan[0].mac.dcf packetSentToPeerBroadcast:vector(packetBytes) ETV
attr interpolationmode none
attr source ieee80211Broadcast(packetSentToPeer)
attr title "packets sent: broadcast , vector(packetBytes)"
vector 348 manet.host[6].wlan[0].mac.dcf packetDropRetryLimitReached:vector(packetBytes) ETV
attr interpolationmode none
attr source packetDropReasonIsRetryLimitReached(packetDropped)
attr title "packet drops: retry limit reached, vector(packetBytes)"
vector 349 manet.host[6].wlan[0].mac packetDropRetryLimitReached:vector(packetBytes) ETV
attr interpolationmode none
attr source packetDropReasonIsRetryLimitReached(packetDropped)
attr title "packet drops: retry limit reached, vector(packetBytes)"
vector 350 manet.host[0].ipv4.arp arpRequestSent:vector(packetBytes) ETV
attr source arpRequestSent
attr title "ARP request sent, vector(packetBytes)"
vector 351 manet.host[0].wlan[0].mac.dcf packetSentToPeerBroadcast:vector(packetBytes) ETV
attr interpolationmode none
attr source ieee80211Broadcast(packetSentToPeer)
attr title "packets sent: broadcast , vector(packetBytes)"
0	75871 256477 0 129358 0 30.678727050755 6286 3.9098827721977 4.0976270046085 24914.069406481 98758.61340482
1	332348 181596 0 129203 0 30.675409842061 4455 4.2973247544788 4.4303787299432 19299.007341016 83608.178332339
2	513944 207066 0 129323 0 30.676381633315 5080 4.5569421896443 4.6885314881802 23320.389235058 107060.89648555
3	721010 245070 0 129354 0 30.67872607836 6013 4.0639759757198 4.2055267407559 24682.195821902 101322.85262187
4	966080 190537 0 129360 0 30.678727517919 4678 4.5872387329816 4.715891239699 21611.51540743 99846.709503458
5	1156617 218150 0 129356 0 30.678727011008 5353 3.9597893913588 4.0897663547657 21375.25943188 85360.700353878
6	1374767 151737 0 129200 0 30.675409004715 3722 4.568116759017 4.6945034745149 17112.259855546 78678.728314393
7	1526504 689255 0 129358 0 30.678727050755 23609 0 0.2 443.11000000005 74.739740000013
8	2215759 451697 0 129203 0 30.675409842061 15449 0 0.2 273.95799999998 44.725012000001
9	2667456 368584 0 129324 0 30.676381633315 12523 0 0.2 148.992 17.226928
10	3036040 500267 0 129355 0 30.67872607836 16441 0 0.2 227.96999999998 31.028299999996
11	3536307 323338 0 129360 0 30.678727517919 10636 0 0.2 108.67200000001 9.9649279999992
12	3859645 384291 0 129356 0 30.678727011008 12642 0 0.2 139.56200000001 14.549148000003
13	4243936 252607 0 129200 0 30.675409004715 8276 0 0.2 80.410000000002 6.7050599999996
14	4496543 103136 0 127890 0 30.649685294405 3705 0 3 9257 24067
15	4599679 712854 0 129358 0 30.678727050755 23608 0 0.2 443.11000000005 74.739740000013
16	5312533 10 0 0 0 0 1 8 8 8 64
17	5312543 61608 0 128307 0 30.657833764739 2211 0 3 5522 14356
18	5374151 467136 0 129203 0 30.675409842061 15448 0 0.2 273.95799999998 44.725012000001
19	5841287 10 0 0 0 0 1 8 8 8 64
20	5841297 22676 0 129324 0 30.676381633315 817 0 3 2037 5295
21	5863973 381097 0 129324 0 30.676381633315 12522 0 0.2 148.992 17.226928
22	6245070 10 0 0 0 0 1 8 8 8 64
23	6245080 42138 0 129355 0 30.67872607836 1503 0 3 3752 9754
24	6287218 500257 0 129355 0 30.67872607836 16440 0 0.2 227.96999999998 31.028299999996
25	6787475 10 0 0 0 0 1 8 8 8 64
26	6787485 12372 0 127475 0 30.644545285292 455 0 3 1132 2942
27	6799857 323328 0 129360 0 30.678727517919 10635 0 0.2 108.67200000001 9.9649279999992
28	7123185 10 0 0 0 0 1 8 8 8 64
29	7123195 18574 0 127103 0 30.637745638256 679 0 3 1692 4398
30	7141769 384281 0 129356 0 30.678727011008 12641 0 0.2 139.56200000001 14.549148000003
31	7526050 10 0 0 0 0 1 8 8 8 64
32	7526060 8346 0 127442 0 30.644217817743 301 0 3 747 1941
33	7534406 252597 0 129200 0 30.675409004715 8275 0 0.2 80.410000000002 6.7050599999996
34	7787003 10 0 0 0 0 1 8 8 8 64
35	7787013 174863 0 129358 0 30.678727050755 6267 0 3 6976 14626
36	7961876 123669 0 129203 0 30.675409842061 4435 0 3 5547 12157
37	8085545 141155 0 129324 0 30.676381633315 5063 0 3 8898 21582
38	8226700 167141 0 129355 0 30.67872607836 5995 0 3 9736 23160
39	8393841 129748 0 129360 0 30.678727517919 4660 0 3 8640 21216
40	8523589 148778 0 129356 0 30.678727011008 5338 0 3 9651 23549
41	8672367 103256 0 129200 0 30.675409004715 3704 0 3 6955 17131
42	8775623 30001 0 122528 0 30.127830787857 1017 15 1023 247271 162225209
43	8805624 12030 0 119477 0 29.741573291984 411 15 1023 95685 62334171
44	8817654 3349 0 124680 0 30.607535638304 115 15 1023 13053 5652627
45	8821003 10559 0 129365 0 30.67877007836 355 15 1023 70685 43844195
46	8831562 95 0 20977 0 9.532240138966 4 15 63 124 5380
47	8831657 2639 0 121868 0 29.895637353234 92 15 1023 16308 9344316
48	8834296 804 0 108594 0 28.788655262152 27 15 1023 4901 2900891
49	8835100 1913 14 127305 0.503713784656 30.64071238268 61 10000 10000 610000 6100000000
50	8837013 1913 16 127306 0.503713784656 30.64071238268 61 10008 10008 610488 6109763904
51	8838926 12123 20 127878 0.510172725807 30.649639294405 405 36 2308 443492 931729376
52	8851049 12241 20 127878 0.510172725807 30.649639294405 405 64 2336 454832 956882448
[...]
114	40356877 15877 280958 308266 51.195354518369 52.708226188266 532 0 1 266 266
115	40372754 1648 280960 308267 51.195354518369 52.708226188266 52 92 2336 13364 17877136
116	40374402 1950 280960 308267 51.195354518369 52.708226188266 52 0 0.063237771683 0.856226874134 0.040167697503783
117	40376352 3283 280960 308276 51.195354518369 52.708272188266 110 0 3 119 187
118	40379635 6279 280960 308267 51.195354518369 52.708226188266 171 24000000 54000000 7554000000 3.67596e+017
119	40385914 5341 280960 308267 51.195354518369 52.708226188266 171 14 1500 50284 54443048
120	40391255 6736 280960 308276 51.195354518369 52.708272188266 226 0 1 113 113
121	40397991 20328 280961 308277 51.195354518369 52.708272188266 684 0 2 684 1026
122	40418319 5341 280969 308276 51.195396518369 52.708272188266 171 14 1500 50284 54443048
123	40423660 1270 280969 308276 51.195396518369 52.708272188266 40 92 122 4628 538480
124	40424930 3452 280969 308276 51.195396518369 52.708272188266 111 14 1500 14232 10506912
125	40428382 2169 280969 308276 51.195396518369 52.708272188266 55 4.2e-005 0.03356541311 0.240195917132 0.0048045211661574
126	40430551 33145 271137 310010 49.231569514526 53.69721866172 756 0.025014420339922 1159242.5924187 9100819.0244962 4189455309729.3
127	40463696 24718 271137 310010 49.231569514526 53.69721866172 756 0 1 23.802656961002 23.521627612736
128	40488414 24149 271137 310010 49.231569514526 53.69721866172 756 nan nan nan nan
129	40512563 23915 271138 310011 49.231569514526 53.69721866172 756 14 1500 360914 408222220
130	40536478 4704 280840 310011 51.193386831678 53.69721866172 148 14 1500 28164 18914432
131	40541182 3789 280840 308465 51.193386831678 52.712859600961 119 86 122 13684 1583576
132	40544971 4198 280840 310011 51.193386831678 53.69721866172 132 14 1500 19516 8336800
133	40549169 3997 280840 309757 51.193386831678 53.694223314411 129 36 2308 17696 16917032
134	40553166 23644 271176 310029 49.237871430431 53.697605594368 540 0.04017876078916 449020.93538136 3942153.5375297 479945999206.3
135	40576810 17634 271176 310029 49.237871430431 53.697605594368 540 0 1 21.463290786537 21.214609171414
136	40594444 17207 271176 310029 49.237871430431 53.697605594368 540 nan nan nan nan
137	40611651 17026 271177 310030 49.237871430431 53.697605594368 540 14 1500 227498 248337380
138	40628677 7781 271177 308692 49.237871430431 53.684524786235 246 14 1500 82432 80101416
139	40636458 3740 279408 308692 50.716111088699 53.684524786235 118 64 122 13482 1555540
140	40640198 6067 271220 308692 49.238087279579 53.684524786235 192 14 1500 43790 37283828
141	40646265 4905 271220 308692 49.238087279579 53.684524786235 158 36 2308 49824 84240672
142	40651170 33732 271088 310031 49.226652904628 53.69760663354 771 0.31084086433005 447471.75105099 6689393.9459087 633234917099.64
143	40684902 25033 271088 310031 49.226652904628 53.69760663354 771 0 1 27.643964794561 27.413097495762
144	40709935 24578 271088 310031 49.226652904628 53.69760663354 771 nan nan nan nan
145	40734513 24393 271089 310032 49.226652904628 53.69760663354 771 14 1500 417516 489532128
146	40758906 4329 280834 308696 51.193385406163 53.684525825407 137 14 122 14402 1606124
147	40763235 3620 280834 308696 51.193385406163 53.684525825407 114 64 122 12898 1475316
148	40766855 3927 280834 308696 51.193385406163 53.684525825407 124 14 122 13194 1493812
149	40770782 3800 280834 308696 51.193385406163 53.684525825407 123 36 94 10294 880876
150	40774582 1979 281111 308604 51.20034743629 52.715398951187 64 36 94 5394 463092
151	40776561 2030 281111 308604 51.20034743629 52.715398951187 64 64 122 7186 815332
152	40778591 3831 281111 308606 51.20034743629 52.715398951187 128 0 2 70 76
153	40782422 2312 281111 308604 51.20034743629 52.715398951187 76 0 777 1989 740585
154	40784734 5929 281111 308605 51.20034743629 52.715398951187 198 0 1 99 99
155	40790663 2031 281113 308606 51.20034743629 52.715398951187 64 64 122 7186 815332
156	40792694 2230 281113 308606 51.20034743629 52.715398951187 64 0 0.000579606191 0.004470387679 1.1364918279568e-006
157	40794924 3830 281113 308615 51.20034743629 52.715444951187 128 0 2 74 84
158	40798754 3362 281113 308606 51.20034743629 52.715398951187 91 24000000 54000000 4464000000 2.30256e+017
159	40802116 2867 281113 308606 51.20034743629 52.715398951187 91 14 122 8368 900472
160	40804983 4550 281113 308615 51.20034743629 52.715444951187 152 0 1 76 76
161	40809533 10900 281114 308616 51.20034743629 52.715444951187 364 0 2 364 546
162	40820433 2867 281126 308615 51.20038943629 52.715444951187 91 14 122 8368 900472
163	40823300 1753 281126 308615 51.20038943629 52.715444951187 55 86 122 6338 734404
164	40825053 2496 281126 308615 51.20038943629 52.715444951187 79 14 122 7396 818272
165	40827549 2421 281126 308615 51.20038943629 52.715444951187 64 4.2e-005 0.013180471998 0.019986588337 0.0001765219849578
166	40829970 19865 271141 310034 49.231570505882 53.697607335329 454 0.7957237671922 562035.3953109 3123440.8862816 597538375922.37
167	40849835 15169 271141 310034 49.231570505882 53.697607335329 454 0 1 8.00001416427 8.0000000000188
168	40865004 14474 271141 310034 49.231570505882 53.697607335329 454 nan nan nan nan
169	40879478 14292 271142 310035 49.231570505882 53.697607335329 454 14 1500 163602 177813428
170	40893770 6460 271201 309983 49.237917355003 53.697171988124 206 14 122 15978 1677140
171	40900230 3246 281181 308704 51.200928652999 53.684526526265 102 64 122 11660 1342296
172	40903476 5625 271201 309909 49.237917355003 53.695949988036 179 14 122 13398 1430372
173	40909101 4016 281181 309983 51.200928652999 53.697171988124 130 36 94 10704 898464
174	40913117 835 281890 308166 51.209549209348 52.707521089228 27 64 94 2370 209580
175	40913952 861 281890 308166 51.209549209348 52.707521089228 27 92 122 3126 363468
176	40914813 1616 281890 308182 51.209549209348 52.707658470407 54 0 1 27 27
177	40916429 819 281890 308166 51.209549209348 52.707521089228 27 0 15 206 2216
178	40917248 1616 281890 308181 51.209549209348 52.707658470407 54 0 1 27 27
179	40918864 861 281892 308182 51.209549209348 52.707658470407 27 92 122 3126 363468
180	40919725 880 281892 308182 51.209549209348 52.707658470407 27 0 0.000142312187 0.000538411968 6.0622694554886e-008
181	40920605 1616 281892 308191 51.209549209348 52.707704470407 54 0 1 27 27
182	40922221 997 281892 308182 51.209549209348 52.707658470407 27 54000000 54000000 1458000000 7.8732e+016
183	40923218 861 281892 308182 51.209549209348 52.707658470407 27 92 122 3126 363468
184	40924079 1616 281892 308191 51.209549209348 52.707704470407 54 0 1 27 27
185	40925695 3232 281893 308192 51.209549209348 52.707704470407 108 0 2 108 162
186	40928927 861 281901 308191 51.209591209348 52.707704470407 27 92 122 3126 363468
187	40929788 861 281901 308191 51.209591209348 52.707704470407 27 92 122 3126 363468
188	40930649 861 281901 308191 51.209591209348 52.707704470407 27 92 122 3126 363468
189	40931510 997 281901 308191 51.209591209348 52.707704470407 27 4.2e-005 4.6e-005 0.001226 5.5724e-008
190	40932507 2965 271224 308410 49.238087279579 52.71155799188 95 64 2308 44612 83794232
191	40935472 3018 271224 308410 49.238087279579 52.71155799188 95 92 2336 47272 86366984
192	40938490 5742 271123 308412 49.231318581878 52.71155799188 191 0 20 725 8931
193	40944232 9470 271147 308410 49.231612581878 52.71155799188 306 0 1000 42386 22887492
194	40953702 29839 271122 308411 49.231318581878 52.71155799188 997 0 1 498 498
195	40983541 3056 271123 308412 49.231318581878 52.71155799188 96 92 2336 49608 91823880
196	40986597 3611 271123 308412 49.231318581878 52.71155799188 96 0 0.152073061754 1.810521656201 0.11346763627964
197	40990208 6702 271123 308421 49.231318581878 52.71160399188 224 0 3 252 436
198	40996910 14926 271123 308412 49.231318581878 52.71155799188 404 24000000 54000000 19146000000 9.69804e+017
199	41011836 12829 271123 308412 49.231318581878 52.71155799188 404 14 1500 232748 276768808
200	41024665 18392 271123 308421 49.231318581878 52.71160399188 614 0 1 307 307
201	41043057 48392 271124 308422 49.231318581878 52.71160399188 1616 0 2 1616 2424
202	41091449 12829 271135 308421 49.231568581878 52.71160399188 404 14 1500 232748 276768808
203	41104278 1748 281564 308421 51.205959803078 52.71160399188 55 92 122 6392 746104
204	41106026 6319 271135 308421 49.231568581878 52.71160399188 201 14 1500 51302 52474924
205	41112345 4466 271408 308421 49.240671527796 52.71160399188 112 4.2e-005 0.099861206584 0.98758867664 0.037228652254736
206	41116811 2102 281240 309761 51.202322012629 53.694223314411 68 36 2308 12462 16462188
207	41118913 2156 281240 309761 51.202322012629 53.694223314411 68 64 2336 14366 17213372
208	41121069 3995 281240 309761 51.202322012629 53.694223314411 134 0 5 89 151
209	41125064 2425 281240 310038 51.202322012629 53.69764866172 80 0 271 1350 123216
210	41127489 6033 281240 310015 51.202322012629 53.69735466172 202 0 1 101 101
211	41133522 2089 281242 309427 51.202322012629 53.691361927939 66 64 2336 9694 6299580
212	41135611 2195 281242 309427 51.202322012629 53.691361927939 66 0 0.001279036554 0.005641952644 4.4264512799691e-006
213	41137806 3933 281242 310011 51.202322012629 53.69721866172 132 0 3 80 98
214	41141739 3760 281242 310016 51.202322012629 53.69735466172 102 24000000 54000000 4818000000 2.43612e+017
215	41145499 3204 281242 310016 51.202322012629 53.69735466172 102 14 1500 10442 3219764
216	41148703 4711 281242 310038 51.202322012629 53.69764866172 158 0 1 79 79
217	41153414 12184 281243 310028 51.202322012629 53.69760466172 408 0 2 408 612
218	41165598 3204 281251 310027 51.202364012629 53.69760466172 102 14 1500 10442 3219764
219	41168802 1870 281251 308689 51.202364012629 53.684523853587 59 64 122 6776 786200
220	41170672 2801 281251 310027 51.202364012629 53.69760466172 89 14 1500 9180 3097192
221	41173473 2425 281251 310011 51.202364012629 53.69721866172 65 3.8e-005 0.011308426215 0.019251788942 0.0001361095108497
222	41175898 10881 271177 310030 49.237871430431 53.697605594368 345 14 1500 192108 223858752
223	41186779 698 281547 309439 51.205798803078 53.691404860587 22 92 1500 11084 12430912
224	41187477 11457 271181 309981 49.237873489586 53.697171684191 364 14 1500 180460 207944160
225	41198934 917 272084 309456 49.250930334814 53.691467239287 29 92 1500 11738 12364780
226	41199851 19529 271138 309886 49.231569514526 53.695903314532 618 14 1500 339438 397593100
227	41219380 733 272462 306127 49.259609269989 52.399435984839 23 14 1500 13566 17515620
228	41220113 8535 271142 310035 49.231570505882 53.697607335329 270 14 1500 167316 200589960
229	41228648 250 282682 306118 51.216724771082 52.399398861422 8 64 864 1546 814564
230	41228898 7026 271094 309808 49.226656242653 53.694385496227 223 14 1500 108312 124386184
231	41235924 732 272086 309255 49.250931403741 53.688678763188 23 14 1500 9644 10973944
232	41236656 20281 271089 310032 49.226652904628 53.69760663354 641 14 1500 403730 487980884
233	41256937 889 272081 309262 49.250929219418 53.68875915563 28 92 1500 21834 30280524
234	41257826 31 308700 308700 53.684526223246 53.684526223246 1 64 64 64 4096
236	41257857 62 286959 308692 51.329299083468 53.684524786235 2 64 64 128 8192
238	41257919 62 306776 308714 52.684662241439 53.684527241439 2 64 64 128 8192
239	41257981 62 286953 308696 51.329298719833 53.684525825407 2 64 64 128 8192
241	41258043 1334 300540 310027 52.335809160715 53.69760466172 43 14 1500 3666 2433564
242	41259377 46941 271138 310027 49.231569514526 53.69760466172 1435 0 0.000252 0.057723175375001 1.0734490920408e-005
243	41306318 47168 271135 310030 49.231568581878 53.697605594368 1454 0 0.000252 0.057883604963001 1.1214895021445e-005
244	41353486 10183 271177 310030 49.237871430431 53.697605594368 323 14 1500 181024 211427840
245	41363669 8485 280878 310030 51.193534224592 53.697605594368 270 14 1500 133804 155789192
246	41372154 8485 280878 310030 51.193534224592 53.697605594368 270 14 1500 133804 155789192
247	41380639 48938 271089 310032 49.226652904628 53.69760663354 1499 0 0.000252 0.063564188211001 1.2266940893118e-005
248	41429577 19392 271089 310032 49.226652904628 53.69760663354 613 14 1500 381896 457700360
249	41448969 19175 271089 310032 49.226652904628 53.69760663354 606 14 1500 381280 457645480
250	41468144 19175 271089 310032 49.226652904628 53.69760663354 606 14 1500 381280 457645480
251	41487319 30052 271181 310003 49.237873489586 53.697215684191 926 0 0.000252 0.037250941656 7.0573248942924e-006
252	41517371 10540 271181 309981 49.237873489586 53.697171684191 335 14 1500 168722 195579380
253	41527911 9795 271181 309981 49.237873489586 53.697171684191 311 14 1500 159062 185543468
254	41537706 9795 271181 309981 49.237873489586 53.697171684191 311 14 1500 159062 185543468
255	41547501 403 300585 309974 52.336317160715 53.697169314532 13 92 98 1262 122572
256	41547904 50428 271086 310035 49.22665165849 53.697607335329 1551 0 0.000252 0.063385205422001 1.2546081701041e-005
257	41598332 8285 271142 310035 49.231570505882 53.697607335329 262 14 1500 165770 199775396
258	41606617 7486 271142 310035 49.231570505882 53.697607335329 237 14 1500 144358 173047236
259	41614103 7486 271142 310035 49.231570505882 53.697607335329 237 14 1500 144358 173047236
260	41621589 3627 271388 308057 49.240623903741 52.706714917078 113 14 1500 108164 133884776
261	41625216 2490 271388 303731 49.240623903741 52.373841195823 77 64 1500 88144 110700096
262	41627706 18186 271403 310006 49.240669301003 53.697216702384 561 0 0.000252 0.017987665302 2.86602474685e-006
263	41645892 8058 271403 309989 49.240669301003 53.697172702384 260 14 1500 40308 36537888
264	41653950 8058 271403 309989 49.240669301003 53.697172702384 260 14 1500 40308 36537888
265	41662008 8090 271403 309989 49.240669301003 53.697172702384 261 14 1500 41172 37284384
266	41670098 8058 271403 309989 49.240669301003 53.697172702384 260 14 1500 40308 36537888
267	41678156 8283 271400 308482 49.240667903741 52.713036588528 268 14 92 17246 1482892
268	41686439 31322 271094 309814 49.226656242653 53.694429496227 968 0 0.000252 0.027589205043 4.0621713632236e-006
269	41717761 4359 280896 308482 51.193923624002 52.713036588528 141 92 92 12972 1193424
270	41722120 18796 271138 309886 49.231569514526 53.695903314532 595 14 1500 325872 380077480
273	41740916 6294 271094 309808 49.226656242653 53.694385496227 200 14 1500 98668 113412240
274	41747210 433 281055 308492 51.199853957712 52.713080588528 14 92 92 1288 118496
275	41747643 433 281055 308492 51.199853957712 52.713080588528 14 92 92 1288 118496
276	41748076 32 297029 297029 52.304530357567 52.304530357567 1 864 864 864 746496
277	41748108 915 300518 310011 52.335765160715 53.69721866172 29 14 1500 14480 17330856
278	41749023 506 300518 309886 52.335765160715 53.695903314532 16 92 1500 8648 10577632
279	41749529 62 306725 308676 52.684485853587 53.684485853587 2 28 28 56 1568
280	41749591 62 306768 308689 52.684658853587 53.684523853587 2 64 64 128 8192
281	41749653 31 286955 286955 51.329298719833 51.329298719833 1 28 28 28 784
282	41749684 1114 287017 306364 51.329472719833 52.400573370868 36 14 98 2030 166068
283	41750798 709 287903 306389 51.357286575785 52.400619868577 23 14 98 1504 130808
284	41751507 4598 271094 309808 49.226656242653 53.694385496227 147 14 1500 52160 55922304
285	41756105 4598 271094 309808 49.226656242653 53.694385496227 147 14 1500 52160 55922304
286	41760703 318 301009 309886 52.340780175195 53.695903314532 10 92 1500 6688 8285312
287	41761021 318 301009 309886 52.340780175195 53.695903314532 10 92 1500 6688 8285312
288	41761339 402 287903 306153 51.357286575785 52.39978449175 13 92 98 1208 112312
289	41761741 186 288000 288954 51.357982515864 51.381785822656 6 92 92 552 50784
290	41761927 186 288000 288954 51.357982515864 51.381785822656 6 92 92 552 50784
292	41762113 11081 271135 306149 49.231568581878 52.399783052191 349 14 1500 226356 276022704
293	41773194 18478 271138 306393 49.231569514526 52.400621295092 585 14 1500 319184 371792168
294	41791672 18478 271138 306393 49.231569514526 52.400621295092 585 14 1500 319184 371792168
295	41810150 6510 271378 306149 49.240620279681 52.399783052191 203 98 1500 181446 224293884
296	41816660 4041 271177 306181 49.237871430431 52.399829931309 128 14 1500 68950 78545876
297	41820701 1714 271177 304266 49.237871430431 52.377975865125 54 92 1500 38642 42817588
300	41822415 31 308704 308704 53.684526526265 53.684526526265 1 64 64 64 4096
301	41822446 1117 271177 304266 49.237871430431 52.377975865125 35 92 1500 28718 32095084
302	41823563 1117 271177 304266 49.237871430431 52.377975865125 35 92 1500 28718 32095084
303	41824680 371 287053 306364 51.329753719833 52.400573370868 12 64 98 972 82200
304	41825051 581 272048 305157 49.250550779859 52.394629414675 18 98 1500 18502 23543564
305	41825632 581 272048 305157 49.250550779859 52.394629414675 18 98 1500 18502 23543564
306	41826213 31 308706 308706 53.684526526265 53.684526526265 1 28 28 28 784
307	41826244 11549 271086 310004 49.22665165849 53.697215988124 361 14 1500 316786 386962156
308	41837793 7681 271086 309949 49.22665165849 53.696820988036 239 92 1500 236956 290657552
309	41845474 3214 271201 309983 49.237917355003 53.697171988124 104 14 98 4318 334844
310	41848688 835 281336 309983 51.203892385237 53.697171988124 27 92 98 2580 246768
314	41849523 583 279378 300727 50.715976160648 52.338409755892 18 92 1500 20744 26664352
315	41850106 583 279378 300727 50.715976160648 52.338409755892 18 92 1500 20744 26664352
316	41850689 1263 271532 303731 49.241825151834 52.373841195823 39 64 1500 45220 57371440
317	41851952 1263 271532 303731 49.241825151834 52.373841195823 39 64 1500 45220 57371440
318	41853215 216 285369 306367 51.301374877174 52.400574619721 7 92 98 668 63808
319	41853431 216 285369 306367 51.301374877174 52.400574619721 7 92 98 668 63808
320	41853647 67 273447 278297 49.298443947397 50.28903672746 2 10008 10008 20016 200320128
321	41853714 840 273447 278298 49.298443947397 50.28903672746 20 0.07737798161 0.079420029901 1.56798011511 0.12294893187513
322	41854554 61 273447 278297 49.298443947397 50.28903672746 2 31 32 63 1985
323	41854615 67 273448 278298 49.298443947397 50.28903672746 2 10000 10000 20000 200000000
324	41854682 272 273448 278298 48.9 50.2 14 0 800000 1600000 1280000000000
325	41854954 84 273448 278298 49.298443947397 50.28903672746 2 0.07737798161 0.079420029901 0.156798011511 0.012294893187513
326	41855038 61 273448 278298 49.298443947397 50.28903672746 2 97 99 196 19210
328	41855099 4071 291005 305877 52.194137060565 52.398374739 131 14 1500 45656 53904568
329	41859170 1889 291051 304258 52.194474060565 52.37797331017 60 98 1500 36052 43936136
330	41861059 2098 290979 305859 52.194093060565 52.398330739 68 14 1500 18870 17910684
331	41863157 1487 290979 305782 52.194093060565 52.39808362909 48 92 1500 17924 17832568
334	41864644 30 308710 308710 53.68452703521 53.68452703521 1 64 64 64 4096
335	41864674 650 291344 305712 52.197897422464 52.39756251918 21 92 1500 7198 7029812
336	41865324 650 291344 305712 52.197897422464 52.39756251918 21 92 1500 7198 7029812
337	41865974 95 294663 298317 52.259036459133 52.31827340504 3 98 1500 2462 3006100
338	41866069 95 294663 298317 52.259036459133 52.31827340504 3 98 1500 2462 3006100
353	41866164 31 287569 287569 51.342615191831 51.342615191831 1 64 64 64 4096
354	41866195 31 287569 287569 51.342615191831 51.342615191831 1 64 64 64 4096
vector 355 manet.host[0].app[0] throughput:vector ETV
attr source throughput(packetReceived)
attr title "throughput, vector"
attr unit bps
324	41866369 674 310038 310038 50.3 53.69764866172 35 0 800000 800000 640000000000
355	41867043 10008 310038 310038 0.1 53.69764866172 537 0 0 0 0

